137659144
  -OEChem-03242010103D

 54 57  0     1  0  0  0  0  0999 V2000
   -0.5995    3.6057    0.3675 O   0  0  0  0  0  0  0  0  0  0  0  0
    0.8974   -2.7998    0.8994 O   0  0  0  0  0  0  0  0  0  0  0  0
    2.7938   -1.8027    1.7632 O   0  0  0  0  0  0  0  0  0  0  0  0
    2.1539   -1.0162   -1.4952 N   0  0  2  0  0  0  0  0  0  0  0  0
   -2.5104    1.7358    0.4946 N   0  0  0  0  0  0  0  0  0  0  0  0
    1.9307    0.7643    0.9821 C   0  0  1  0  0  0  0  0  0  0  0  0
    1.1105   -0.4757    0.6469 C   0  0  1  0  0  0  0  0  0  0  0  0
    3.0267    1.0020   -0.1155 C   0  0  2  0  0  0  0  0  0  0  0  0
    0.9375   -0.4597   -0.8907 C   0  0  2  0  0  0  0  0  0  0  0  0
    3.3421   -0.2851   -0.9564 C   0  0  0  0  0  0  0  0  0  0  0  0
    0.9561    1.9754    1.1632 C   0  0  0  0  0  0  0  0  0  0  0  0
   -0.4869   -0.8670   -1.2573 C   0  0  0  0  0  0  0  0  0  0  0  0
    4.3101    1.5529    0.5100 C   0  0  0  0  0  0  0  0  0  0  0  0
   -0.0930    2.2942    0.0608 C   0  0  1  0  0  0  0  0  0  0  0  0
   -1.4982    0.0809   -0.6070 C   0  0  0  0  0  0  0  0  0  0  0  0
   -1.2970    1.3551   -0.0405 C   0  0  0  0  0  0  0  0  0  0  0  0
    1.7212   -1.7494    1.1769 C   0  0  0  0  0  0  0  0  0  0  0  0
    2.1262   -0.9886   -2.9540 C   0  0  0  0  0  0  0  0  0  0  0  0
   -2.8856   -0.2494   -0.4289 C   0  0  0  0  0  0  0  0  0  0  0  0
    5.3630    1.8253   -0.5452 C   0  0  0  0  0  0  0  0  0  0  0  0
   -3.4847    0.8013    0.2585 C   0  0  0  0  0  0  0  0  0  0  0  0
   -3.6823   -1.3598   -0.7835 C   0  0  0  0  0  0  0  0  0  0  0  0
   -4.8405    0.8080    0.6061 C   0  0  0  0  0  0  0  0  0  0  0  0
   -5.0400   -1.3699   -0.4448 C   0  0  0  0  0  0  0  0  0  0  0  0
    1.3578   -4.0778    1.3496 C   0  0  0  0  0  0  0  0  0  0  0  0
   -5.6091   -0.2997    0.2400 C   0  0  0  0  0  0  0  0  0  0  0  0
    2.4277    0.6306    1.9521 H   0  0  0  0  0  0  0  0  0  0  0  0
    0.1684   -0.4188    1.2050 H   0  0  0  0  0  0  0  0  0  0  0  0
    2.6626    1.7658   -0.8167 H   0  0  0  0  0  0  0  0  0  0  0  0
    0.9490    0.5588   -1.2773 H   0  0  0  0  0  0  0  0  0  0  0  0
    3.9996   -0.0142   -1.7909 H   0  0  0  0  0  0  0  0  0  0  0  0
    3.9227   -0.9906   -0.3511 H   0  0  0  0  0  0  0  0  0  0  0  0
    1.5728    2.8693    1.3291 H   0  0  0  0  0  0  0  0  0  0  0  0
    0.4146    1.8334    2.1097 H   0  0  0  0  0  0  0  0  0  0  0  0
   -0.6880   -1.8992   -0.9518 H   0  0  0  0  0  0  0  0  0  0  0  0
   -0.6391   -0.8132   -2.3418 H   0  0  0  0  0  0  0  0  0  0  0  0
    0.3746    2.4038   -0.9211 H   0  0  0  0  0  0  0  0  0  0  0  0
    4.7126    0.8530    1.2518 H   0  0  0  0  0  0  0  0  0  0  0  0
    4.0856    2.4869    1.0386 H   0  0  0  0  0  0  0  0  0  0  0  0
    1.3024   -1.5977   -3.3398 H   0  0  0  0  0  0  0  0  0  0  0  0
    3.0440   -1.4262   -3.3630 H   0  0  0  0  0  0  0  0  0  0  0  0
    2.0235    0.0286   -3.3483 H   0  0  0  0  0  0  0  0  0  0  0  0
    5.7997    0.9030   -0.9394 H   0  0  0  0  0  0  0  0  0  0  0  0
    6.1862    2.3977   -0.1037 H   0  0  0  0  0  0  0  0  0  0  0  0
    4.9611    2.4124   -1.3771 H   0  0  0  0  0  0  0  0  0  0  0  0
   -2.6656    2.6110    0.9748 H   0  0  0  0  0  0  0  0  0  0  0  0
    0.1417    4.2312    0.2949 H   0  0  0  0  0  0  0  0  0  0  0  0
   -3.2540   -2.2036   -1.3173 H   0  0  0  0  0  0  0  0  0  0  0  0
   -5.2827    1.6408    1.1428 H   0  0  0  0  0  0  0  0  0  0  0  0
   -5.6547   -2.2231   -0.7190 H   0  0  0  0  0  0  0  0  0  0  0  0
    0.6131   -4.8263    1.0663 H   0  0  0  0  0  0  0  0  0  0  0  0
    1.4623   -4.0805    2.4388 H   0  0  0  0  0  0  0  0  0  0  0  0
    2.3082   -4.3282    0.8688 H   0  0  0  0  0  0  0  0  0  0  0  0
   -6.6652   -0.3256    0.4953 H   0  0  0  0  0  0  0  0  0  0  0  0
  1 14  1  0  0  0  0
  1 47  1  0  0  0  0
  2 17  1  0  0  0  0
  2 25  1  0  0  0  0
  3 17  2  0  0  0  0
  4  9  1  0  0  0  0
  4 10  1  0  0  0  0
  4 18  1  0  0  0  0
  5 16  1  0  0  0  0
  5 21  1  0  0  0  0
  5 46  1  0  0  0  0
  6  7  1  0  0  0  0
  6  8  1  0  0  0  0
  6 11  1  0  0  0  0
  6 27  1  0  0  0  0
  7  9  1  0  0  0  0
  7 17  1  0  0  0  0
  7 28  1  0  0  0  0
  8 10  1  0  0  0  0
  8 13  1  0  0  0  0
  8 29  1  0  0  0  0
  9 12  1  0  0  0  0
  9 30  1  0  0  0  0
 10 31  1  0  0  0  0
 10 32  1  0  0  0  0
 11 14  1  0  0  0  0
 11 33  1  0  0  0  0
 11 34  1  0  0  0  0
 12 15  1  0  0  0  0
 12 35  1  0  0  0  0
 12 36  1  0  0  0  0
 13 20  1  0  0  0  0
 13 38  1  0  0  0  0
 13 39  1  0  0  0  0
 14 16  1  0  0  0  0
 14 37  1  0  0  0  0
 15 16  2  0  0  0  0
 15 19  1  0  0  0  0
 18 40  1  0  0  0  0
 18 41  1  0  0  0  0
 18 42  1  0  0  0  0
 19 21  1  0  0  0  0
 19 22  2  0  0  0  0
 20 43  1  0  0  0  0
 20 44  1  0  0  0  0
 20 45  1  0  0  0  0
 21 23  2  0  0  0  0
 22 24  1  0  0  0  0
 22 48  1  0  0  0  0
 23 26  1  0  0  0  0
 23 49  1  0  0  0  0
 24 26  2  0  0  0  0
 24 50  1  0  0  0  0
 25 51  1  0  0  0  0
 25 52  1  0  0  0  0
 25 53  1  0  0  0  0
 26 54  1  0  0  0  0
M  END
> <PUBCHEM_COMPOUND_CID>
137659144

> <PUBCHEM_CONFORMER_RMSD>
0.8

> <PUBCHEM_CONFORMER_DIVERSEORDER>
1
3
2
4

> <PUBCHEM_MMFF94_PARTIAL_CHARGES>
26
1 -0.68
10 0.27
12 0.18
14 0.46
15 -0.18
16 -0.33
17 0.66
18 0.27
2 -0.43
21 -0.15
22 -0.15
23 -0.15
24 -0.15
25 0.28
26 -0.15
3 -0.57
4 -0.81
46 0.27
47 0.4
48 0.15
49 0.15
5 0.03
50 0.15
54 0.15
7 0.06
9 0.27

> <PUBCHEM_EFFECTIVE_ROTOR_COUNT>
4.4

> <PUBCHEM_PHARMACOPHORE_FEATURES>
10
1 1 acceptor
1 1 donor
1 20 hydrophobe
1 3 acceptor
1 4 cation
1 5 cation
1 5 donor
5 5 15 16 19 21 rings
6 19 21 22 23 24 26 rings
6 4 6 7 8 9 10 rings

> <PUBCHEM_HEAVY_ATOM_COUNT>
26

> <PUBCHEM_ATOM_DEF_STEREO_COUNT>
5

> <PUBCHEM_ATOM_UDEF_STEREO_COUNT>
0

> <PUBCHEM_BOND_DEF_STEREO_COUNT>
0

> <PUBCHEM_BOND_UDEF_STEREO_COUNT>
0

> <PUBCHEM_ISOTOPIC_ATOM_COUNT>
0

> <PUBCHEM_COMPONENT_COUNT>
1

> <PUBCHEM_CACTVS_TAUTO_COUNT>
-1

> <PUBCHEM_CONFORMER_ID>
0834830800000001

> <PUBCHEM_MMFF94_ENERGY>
89.3689

> <PUBCHEM_FEATURE_SELFOVERLAP>
50.841

> <PUBCHEM_SHAPE_FINGERPRINT>
10090160 65 18114180869198678444
10366900 7 18261948665399053865
10906281 52 18125460819376414236
1100329 8 18120933077357720512
11578080 2 17896305927110743621
12011746 2 18272931669737456125
12293681 25 18055103031971637054
12553582 1 18412258407559984815
12788726 201 17988647350861013609
12969540 37 17898280602765750738
13135754 10 12458834904898192956
13140716 1 17980749756059099017
13224815 77 18412823573552844805
13464513 79 18200310047392778189
13583140 156 18262504984302960295
14223421 5 18263355889404909029
14341114 328 18410852187437000416
14787075 74 18339081613247530276
14790565 3 18264209286559548529
14863182 85 17967255295153447010
14955137 171 17845378919392115081
15196674 1 18131074830994508717
15230672 131 14230389746590591131
15664445 248 18335997410011900868
1601671 61 17917996100260378781
16945 1 18052815840967575156
17349148 13 16805326586774994861
17909252 39 17488202417364988374
1813 80 18259994786018885741
18681886 176 17417524856148243121
20567600 347 18334860524000402530
20691752 17 18187094931160214237
20905425 154 18271521996856566628
21033648 29 16415474905752971435
21267235 1 18129105692216983949
21421861 104 18265055725865389091
23184049 29 18051402981552949873
23559900 14 17771633351920180471
25222932 49 18337949116714285879
3052486 1 17898011475830097522
34934 24 18342174458273864405
404807 78 17098067306370982523
4340502 62 18187087281823252258
474 4 18187931745640477996
5104073 3 18131357384297934075
5486654 2 18262521510825496420
57091435 65 18338231548951719451
59755656 215 18131075956297020052
59755656 520 18115303505584536606
6823239 73 17774451477241203703
70251023 43 18126582123272578710
7097593 13 17614277767260163179

> <PUBCHEM_SHAPE_MULTIPOLES>
507.5
9.4
3.26
1.62
7.22
1.27
-0.74
-1.66
-0.51
-1.67
1.62
-1.48
1.08
-0.77

> <PUBCHEM_SHAPE_SELFOVERLAP>
1089.785

> <PUBCHEM_SHAPE_VOLUME>
275.1

> <PUBCHEM_COORDINATE_TYPE>
2
5
10

$$$$