127042305
  -OEChem-03242010103D

 53 56  0     0  0  0  0  0  0999 V2000
    2.1646    0.7480    0.2598 O   0  0  0  0  0  0  0  0  0  0  0  0
    3.5120   -3.0619   -0.2206 O   0  0  0  0  0  0  0  0  0  0  0  0
    5.9855   -2.1447   -0.4660 O   0  0  0  0  0  0  0  0  0  0  0  0
    6.5309    2.5634   -0.1614 O   0  0  0  0  0  0  0  0  0  0  0  0
   -2.6686    1.0026    0.2417 N   0  0  0  0  0  0  0  0  0  0  0  0
   -0.0155   -0.0109    0.4823 N   0  0  0  0  0  0  0  0  0  0  0  0
   -9.7577   -1.5986    0.1257 N   0  0  0  0  0  0  0  0  0  0  0  0
   -2.2177   -0.1211   -0.5925 C   0  0  0  0  0  0  0  0  0  0  0  0
   -1.5457    1.9058    0.5320 C   0  0  0  0  0  0  0  0  0  0  0  0
   -1.1070   -0.9083    0.1056 C   0  0  0  0  0  0  0  0  0  0  0  0
   -0.4202    1.1631    1.2548 C   0  0  0  0  0  0  0  0  0  0  0  0
   -3.7544    1.7278   -0.4169 C   0  0  0  0  0  0  0  0  0  0  0  0
    1.2949   -0.3364    0.2860 C   0  0  0  0  0  0  0  0  0  0  0  0
   -5.0672    1.0004   -0.2982 C   0  0  0  0  0  0  0  0  0  0  0  0
    1.7059   -1.6060    0.1308 C   0  0  0  0  0  0  0  0  0  0  0  0
    3.5040    0.5231    0.0683 C   0  0  0  0  0  0  0  0  0  0  0  0
    4.0411   -0.7507   -0.1030 C   0  0  0  0  0  0  0  0  0  0  0  0
    3.1351   -1.9070   -0.0788 C   0  0  0  0  0  0  0  0  0  0  0  0
   -5.7598    0.6195   -1.4476 C   0  0  0  0  0  0  0  0  0  0  0  0
   -5.5909    0.7074    0.9610 C   0  0  0  0  0  0  0  0  0  0  0  0
    5.4143   -0.9202   -0.2942 C   0  0  0  0  0  0  0  0  0  0  0  0
    4.3405    1.6396    0.0491 C   0  0  0  0  0  0  0  0  0  0  0  0
   -6.9761   -0.0544   -1.3376 C   0  0  0  0  0  0  0  0  0  0  0  0
   -6.8072    0.0337    1.0709 C   0  0  0  0  0  0  0  0  0  0  0  0
    5.7128    1.4756   -0.1419 C   0  0  0  0  0  0  0  0  0  0  0  0
    6.2485    0.1983   -0.3129 C   0  0  0  0  0  0  0  0  0  0  0  0
   -7.4998   -0.3474   -0.0784 C   0  0  0  0  0  0  0  0  0  0  0  0
   -8.7457   -1.0378    0.0342 C   0  0  0  0  0  0  0  0  0  0  0  0
    6.4199   -2.8277    0.7087 C   0  0  0  0  0  0  0  0  0  0  0  0
    7.9234    2.3246   -0.3608 C   0  0  0  0  0  0  0  0  0  0  0  0
   -1.1588    2.3516   -0.3942 H   0  0  0  0  0  0  0  0  0  0  0  0
   -3.0439   -0.8139   -0.7901 H   0  0  0  0  0  0  0  0  0  0  0  0
   -1.8533    0.2399   -1.5641 H   0  0  0  0  0  0  0  0  0  0  0  0
   -1.8812    2.7265    1.1776 H   0  0  0  0  0  0  0  0  0  0  0  0
    0.4066    1.8619    1.4252 H   0  0  0  0  0  0  0  0  0  0  0  0
   -0.7615    0.8358    2.2454 H   0  0  0  0  0  0  0  0  0  0  0  0
   -1.4953   -1.4070    1.0025 H   0  0  0  0  0  0  0  0  0  0  0  0
   -0.7910   -1.6899   -0.5943 H   0  0  0  0  0  0  0  0  0  0  0  0
   -3.5113    1.9500   -1.4646 H   0  0  0  0  0  0  0  0  0  0  0  0
   -3.9074    2.7040    0.0644 H   0  0  0  0  0  0  0  0  0  0  0  0
    1.0450   -2.4636    0.1757 H   0  0  0  0  0  0  0  0  0  0  0  0
   -5.3632    0.8400   -2.4349 H   0  0  0  0  0  0  0  0  0  0  0  0
   -5.0656    1.0027    1.8655 H   0  0  0  0  0  0  0  0  0  0  0  0
    3.9260    2.6357    0.1822 H   0  0  0  0  0  0  0  0  0  0  0  0
   -7.5041   -0.3451   -2.2427 H   0  0  0  0  0  0  0  0  0  0  0  0
   -7.2032   -0.1865    2.0594 H   0  0  0  0  0  0  0  0  0  0  0  0
    7.3067    0.0121   -0.4663 H   0  0  0  0  0  0  0  0  0  0  0  0
    6.6620   -3.8585    0.4360 H   0  0  0  0  0  0  0  0  0  0  0  0
    5.6397   -2.8415    1.4765 H   0  0  0  0  0  0  0  0  0  0  0  0
    7.3211   -2.3499    1.1055 H   0  0  0  0  0  0  0  0  0  0  0  0
    8.4230    3.2989   -0.3475 H   0  0  0  0  0  0  0  0  0  0  0  0
    8.1192    1.8792   -1.3421 H   0  0  0  0  0  0  0  0  0  0  0  0
    8.3522    1.7353    0.4568 H   0  0  0  0  0  0  0  0  0  0  0  0
  1 13  1  0  0  0  0
  1 16  1  0  0  0  0
  2 18  2  0  0  0  0
  3 21  1  0  0  0  0
  3 29  1  0  0  0  0
  4 25  1  0  0  0  0
  4 30  1  0  0  0  0
  5  8  1  0  0  0  0
  5  9  1  0  0  0  0
  5 12  1  0  0  0  0
  6 10  1  0  0  0  0
  6 11  1  0  0  0  0
  6 13  1  0  0  0  0
  7 28  3  0  0  0  0
  8 10  1  0  0  0  0
  8 32  1  0  0  0  0
  8 33  1  0  0  0  0
  9 11  1  0  0  0  0
  9 31  1  0  0  0  0
  9 34  1  0  0  0  0
 10 37  1  0  0  0  0
 10 38  1  0  0  0  0
 11 35  1  0  0  0  0
 11 36  1  0  0  0  0
 12 14  1  0  0  0  0
 12 39  1  0  0  0  0
 12 40  1  0  0  0  0
 13 15  2  0  0  0  0
 14 19  2  0  0  0  0
 14 20  1  0  0  0  0
 15 18  1  0  0  0  0
 15 41  1  0  0  0  0
 16 17  2  0  0  0  0
 16 22  1  0  0  0  0
 17 18  1  0  0  0  0
 17 21  1  0  0  0  0
 19 23  1  0  0  0  0
 19 42  1  0  0  0  0
 20 24  2  0  0  0  0
 20 43  1  0  0  0  0
 21 26  2  0  0  0  0
 22 25  2  0  0  0  0
 22 44  1  0  0  0  0
 23 27  2  0  0  0  0
 23 45  1  0  0  0  0
 24 27  1  0  0  0  0
 24 46  1  0  0  0  0
 25 26  1  0  0  0  0
 26 47  1  0  0  0  0
 27 28  1  0  0  0  0
 29 48  1  0  0  0  0
 29 49  1  0  0  0  0
 29 50  1  0  0  0  0
 30 51  1  0  0  0  0
 30 52  1  0  0  0  0
 30 53  1  0  0  0  0
M  END
> <PUBCHEM_COMPOUND_CID>
127042305

> <PUBCHEM_CONFORMER_RMSD>
0.8

> <PUBCHEM_CONFORMER_DIVERSEORDER>
2
53
46
16
49
52
23
25
32
22
12
14
56
44
24
13
36
21
7
35
10
4
31
48
37
45
28
39
47
30
27
57
34
6
18
40
8
26
29
15
33
1
60
17
38
3
19
20
5
54
59
11
51
42
43
41
9
50
55
58
61

> <PUBCHEM_MMFF94_PARTIAL_CHARGES>
37
1 -0.16
10 0.37
11 0.37
12 0.41
13 0.18
14 -0.14
15 -0.14
16 0.08
17 0.09
18 0.47
19 -0.15
2 -0.57
20 -0.15
21 0.08
22 -0.15
23 -0.15
24 -0.15
25 0.08
26 -0.15
27 0.07
28 0.48
29 0.28
3 -0.36
30 0.28
4 -0.36
41 0.15
42 0.15
43 0.15
44 0.15
45 0.15
46 0.15
47 0.15
5 -0.81
6 -0.84
7 -0.56
8 0.27
9 0.27

> <PUBCHEM_EFFECTIVE_ROTOR_COUNT>
6.2

> <PUBCHEM_PHARMACOPHORE_FEATURES>
11
1 1 acceptor
1 2 acceptor
1 3 acceptor
1 4 acceptor
1 5 cation
1 6 cation
1 7 acceptor
6 1 13 15 16 17 18 rings
6 14 19 20 23 24 27 rings
6 16 17 21 22 25 26 rings
6 5 6 8 9 10 11 rings

> <PUBCHEM_HEAVY_ATOM_COUNT>
30

> <PUBCHEM_ATOM_DEF_STEREO_COUNT>
0

> <PUBCHEM_ATOM_UDEF_STEREO_COUNT>
0

> <PUBCHEM_BOND_DEF_STEREO_COUNT>
0

> <PUBCHEM_BOND_UDEF_STEREO_COUNT>
0

> <PUBCHEM_ISOTOPIC_ATOM_COUNT>
0

> <PUBCHEM_COMPONENT_COUNT>
1

> <PUBCHEM_CACTVS_TAUTO_COUNT>
1

> <PUBCHEM_CONFORMER_ID>
0792830100000002

> <PUBCHEM_MMFF94_ENERGY>
102.51

> <PUBCHEM_FEATURE_SELFOVERLAP>
55.863

> <PUBCHEM_SHAPE_FINGERPRINT>
10 15 17822008744114720816
10299344 5 17989207049634538543
10391435 84 18041279971924049587
10595046 47 18342740671838318017
11315181 36 13407082492647861653
12082328 90 18409726241282842149
12166972 35 18335704914296898780
12236239 1 18130788919237440320
12730499 353 18334860494004170658
13533116 47 18272650121988816472
13692114 37 18259979375560644906
13782708 43 17896318008764036586
13914758 101 8430323437531371319
14251764 18 17775847922113366405
14294032 229 15696902266579098417
14856354 85 16702300179312232109
150020 25 18040713654552367287
15142383 8 9583515417266028670
15183329 4 17418089919241489605
15347591 1 18264486175011736313
15352257 5 18413670223619414499
15444296 7 18261114140363440487
15510794 2 18259703394553038059
1577012 14 18201445744030768409
18335252 98 18409168831298804843
18365409 1 18267588094761285406
18608769 82 18337109068276213715
20105231 36 14476966705296867269
20157964 124 18409730660645647980
21049683 271 18342738554905212241
21150785 3 18202565107413617273
21267235 1 18201440237876880622
21315763 28 18337671914754696426
21403212 168 10881672525151182529
22149856 69 17060065787490262195
23081809 10 18060703857670795961
23389318 12 18341604954537804063
23424782 7 18260831514409288039
23516275 137 17274003305610234031
23522609 53 17774462523992827617
23559900 14 18411132580108729265
23569917 315 18198627636254046054
24771750 20 17827087508208788284
27425 322 16733275659449281626
335352 9 18411144616020355958
34797466 226 17988931059136100924
3552219 110 17489596666554743921
4073 2 18187650236045709194
4149490 64 18334572447928288954
4258327 124 17605291738141804596
4325135 7 18410012161096880461
44880568 143 17458062630410488685
5470011 282 18408600362370606373
6394761 36 10375877381112249441
9831232 110 17559125267668190902
999808 66 18409735080531343443

> <PUBCHEM_SHAPE_MULTIPOLES>
578.97
27.37
2.59
0.95
31.49
0.75
-0.03
2.72
-2.63
-5.72
0.06
1.2
-0.11
-0.32

> <PUBCHEM_SHAPE_SELFOVERLAP>
1255.988

> <PUBCHEM_SHAPE_VOLUME>
316.2

> <PUBCHEM_COORDINATE_TYPE>
2
5
10

$$$$