22004538
  -OEChem-03242010103D

 61 64  0     1  0  0  0  0  0999 V2000
    7.8703    2.3652   -0.4879 O   0  0  0  0  0  0  0  0  0  0  0  0
    9.1165   -0.0858   -0.0960 O   0  0  0  0  0  0  0  0  0  0  0  0
   -5.8367   -1.4736    1.1450 O   0  0  0  0  0  0  0  0  0  0  0  0
    2.7642   -0.9537    0.1062 N   0  0  1  0  0  0  0  0  0  0  0  0
   -4.9728    0.3142   -0.1141 N   0  0  0  0  0  0  0  0  0  0  0  0
   -7.2396    2.0414    0.8835 N   0  0  0  0  0  0  0  0  0  0  0  0
    3.3300   -2.1860   -0.4563 C   0  0  0  0  0  0  0  0  0  0  0  0
    3.4612    0.2231   -0.4422 C   0  0  0  0  0  0  0  0  0  0  0  0
    4.7773   -2.3576    0.0164 C   0  0  0  0  0  0  0  0  0  0  0  0
    4.9654    0.1382   -0.3198 C   0  0  0  0  0  0  0  0  0  0  0  0
    5.5981   -1.1046   -0.1448 C   0  0  0  0  0  0  0  0  0  0  0  0
    1.3299   -0.8690   -0.1670 C   0  0  0  0  0  0  0  0  0  0  0  0
    0.6285    0.0215    0.8593 C   0  0  0  0  0  0  0  0  0  0  0  0
    5.7430    1.2972   -0.4456 C   0  0  0  0  0  0  0  0  0  0  0  0
    6.9950   -1.1654   -0.0606 C   0  0  0  0  0  0  0  0  0  0  0  0
    7.1338    1.2252   -0.3702 C   0  0  0  0  0  0  0  0  0  0  0  0
    7.7590   -0.0044   -0.1756 C   0  0  0  0  0  0  0  0  0  0  0  0
   -0.8553    0.0993    0.6022 C   0  0  0  0  0  0  0  0  0  0  0  0
   -1.7156   -0.8239    1.1967 C   0  0  0  0  0  0  0  0  0  0  0  0
   -1.3675    1.0939   -0.2311 C   0  0  0  0  0  0  0  0  0  0  0  0
   -3.0882   -0.7523    0.9580 C   0  0  0  0  0  0  0  0  0  0  0  0
   -2.7398    1.1655   -0.4697 C   0  0  0  0  0  0  0  0  0  0  0  0
   -3.6001    0.2425    0.1249 C   0  0  0  0  0  0  0  0  0  0  0  0
    8.1609    3.0762    0.7138 C   0  0  0  0  0  0  0  0  0  0  0  0
    9.6775   -1.3817    0.1040 C   0  0  0  0  0  0  0  0  0  0  0  0
   -5.9810   -0.5177    0.3906 C   0  0  0  0  0  0  0  0  0  0  0  0
   -7.3580   -0.2032   -0.0725 C   0  0  0  0  0  0  0  0  0  0  0  0
   -7.9419    1.0387    0.1780 C   0  0  0  0  0  0  0  0  0  0  0  0
   -8.0686   -1.1797   -0.7704 C   0  0  0  0  0  0  0  0  0  0  0  0
   -9.2362    1.3038   -0.2695 C   0  0  0  0  0  0  0  0  0  0  0  0
   -9.3629   -0.9145   -1.2178 C   0  0  0  0  0  0  0  0  0  0  0  0
   -9.9467    0.3272   -0.9674 C   0  0  0  0  0  0  0  0  0  0  0  0
    2.7646   -3.0646   -0.1221 H   0  0  0  0  0  0  0  0  0  0  0  0
    3.2863   -2.1691   -1.5539 H   0  0  0  0  0  0  0  0  0  0  0  0
    3.1326    1.1196    0.0958 H   0  0  0  0  0  0  0  0  0  0  0  0
    3.2237    0.3595   -1.5059 H   0  0  0  0  0  0  0  0  0  0  0  0
    4.7846   -2.6348    1.0784 H   0  0  0  0  0  0  0  0  0  0  0  0
    5.2365   -3.1786   -0.5471 H   0  0  0  0  0  0  0  0  0  0  0  0
    1.1288   -0.5343   -1.1935 H   0  0  0  0  0  0  0  0  0  0  0  0
    0.8776   -1.8673   -0.0864 H   0  0  0  0  0  0  0  0  0  0  0  0
    1.0377    1.0389    0.8501 H   0  0  0  0  0  0  0  0  0  0  0  0
    0.8022   -0.3594    1.8746 H   0  0  0  0  0  0  0  0  0  0  0  0
    5.2611    2.2593   -0.6039 H   0  0  0  0  0  0  0  0  0  0  0  0
    7.4245   -2.1495    0.0968 H   0  0  0  0  0  0  0  0  0  0  0  0
   -1.3269   -1.6041    1.8460 H   0  0  0  0  0  0  0  0  0  0  0  0
   -0.7068    1.8173   -0.7016 H   0  0  0  0  0  0  0  0  0  0  0  0
   -3.6877   -1.5025    1.4537 H   0  0  0  0  0  0  0  0  0  0  0  0
   -3.1251    1.9455   -1.1214 H   0  0  0  0  0  0  0  0  0  0  0  0
    7.2361    3.4118    1.1937 H   0  0  0  0  0  0  0  0  0  0  0  0
    8.7362    2.4499    1.4030 H   0  0  0  0  0  0  0  0  0  0  0  0
    8.7598    3.9540    0.4563 H   0  0  0  0  0  0  0  0  0  0  0  0
    9.3734   -1.8094    1.0655 H   0  0  0  0  0  0  0  0  0  0  0  0
    9.4627   -2.0494   -0.7374 H   0  0  0  0  0  0  0  0  0  0  0  0
   10.7650   -1.2591    0.1416 H   0  0  0  0  0  0  0  0  0  0  0  0
   -5.2655    1.0614   -0.7405 H   0  0  0  0  0  0  0  0  0  0  0  0
   -7.6250   -2.1509   -0.9747 H   0  0  0  0  0  0  0  0  0  0  0  0
   -9.7033    2.2672   -0.0812 H   0  0  0  0  0  0  0  0  0  0  0  0
   -9.9159   -1.6747   -1.7618 H   0  0  0  0  0  0  0  0  0  0  0  0
  -10.9544    0.5335   -1.3160 H   0  0  0  0  0  0  0  0  0  0  0  0
   -6.3056    1.8712    1.2304 H   0  0  0  0  0  0  0  0  0  0  0  0
   -7.6802    2.9355    1.0563 H   0  0  0  0  0  0  0  0  0  0  0  0
  1 16  1  0  0  0  0
  1 24  1  0  0  0  0
  2 17  1  0  0  0  0
  2 25  1  0  0  0  0
  3 26  2  0  0  0  0
  4  7  1  0  0  0  0
  4  8  1  0  0  0  0
  4 12  1  0  0  0  0
  5 23  1  0  0  0  0
  5 26  1  0  0  0  0
  5 55  1  0  0  0  0
  6 28  1  0  0  0  0
  6 60  1  0  0  0  0
  6 61  1  0  0  0  0
  7  9  1  0  0  0  0
  7 33  1  0  0  0  0
  7 34  1  0  0  0  0
  8 10  1  0  0  0  0
  8 35  1  0  0  0  0
  8 36  1  0  0  0  0
  9 11  1  0  0  0  0
  9 37  1  0  0  0  0
  9 38  1  0  0  0  0
 10 11  1  0  0  0  0
 10 14  2  0  0  0  0
 11 15  2  0  0  0  0
 12 13  1  0  0  0  0
 12 39  1  0  0  0  0
 12 40  1  0  0  0  0
 13 18  1  0  0  0  0
 13 41  1  0  0  0  0
 13 42  1  0  0  0  0
 14 16  1  0  0  0  0
 14 43  1  0  0  0  0
 15 17  1  0  0  0  0
 15 44  1  0  0  0  0
 16 17  2  0  0  0  0
 18 19  2  0  0  0  0
 18 20  1  0  0  0  0
 19 21  1  0  0  0  0
 19 45  1  0  0  0  0
 20 22  2  0  0  0  0
 20 46  1  0  0  0  0
 21 23  2  0  0  0  0
 21 47  1  0  0  0  0
 22 23  1  0  0  0  0
 22 48  1  0  0  0  0
 24 49  1  0  0  0  0
 24 50  1  0  0  0  0
 24 51  1  0  0  0  0
 25 52  1  0  0  0  0
 25 53  1  0  0  0  0
 25 54  1  0  0  0  0
 26 27  1  0  0  0  0
 27 28  1  0  0  0  0
 27 29  2  0  0  0  0
 28 30  2  0  0  0  0
 29 31  1  0  0  0  0
 29 56  1  0  0  0  0
 30 32  1  0  0  0  0
 30 57  1  0  0  0  0
 31 32  2  0  0  0  0
 31 58  1  0  0  0  0
 32 59  1  0  0  0  0
M  END
> <PUBCHEM_COMPOUND_CID>
22004538

> <PUBCHEM_CONFORMER_RMSD>
1

> <PUBCHEM_CONFORMER_DIVERSEORDER>
4
7
93
81
1
87
73
72
64
30
79
83
90
28
58
56
82
62
29
42
2
68
74
32
60
10
61
84
51
5
17
76
40
50
66
88
85
65
11
86
3
69
91
71
63
16
38
24
55
78
19
57
34
9
31
36
41
18
46
21
54
67
80
25
20
59
8
49
89
14
26
92
70
53
47
52
43
37
13
39
77
12
45
22
6
48
75
15
33
44
23
35
27

> <PUBCHEM_MMFF94_PARTIAL_CHARGES>
45
1 -0.36
10 -0.14
11 -0.14
12 0.27
13 0.14
14 -0.15
15 -0.15
16 0.08
17 0.08
18 -0.14
19 -0.15
2 -0.36
20 -0.15
21 -0.15
22 -0.15
23 0.12
24 0.28
25 0.28
26 0.54
27 0.09
28 0.1
29 -0.15
3 -0.57
30 -0.15
31 -0.15
32 -0.15
4 -0.81
43 0.15
44 0.15
45 0.15
46 0.15
47 0.15
48 0.15
5 -0.55
55 0.37
56 0.15
57 0.15
58 0.15
59 0.15
6 -0.9
60 0.4
61 0.4
7 0.27
8 0.41
9 0.14

> <PUBCHEM_EFFECTIVE_ROTOR_COUNT>
8.8

> <PUBCHEM_PHARMACOPHORE_FEATURES>
11
1 1 acceptor
1 2 acceptor
1 3 acceptor
1 4 cation
1 5 donor
1 6 cation
1 6 donor
6 10 11 14 15 16 17 rings
6 18 19 20 21 22 23 rings
6 27 28 29 30 31 32 rings
6 4 7 8 9 10 11 rings

> <PUBCHEM_HEAVY_ATOM_COUNT>
32

> <PUBCHEM_ATOM_DEF_STEREO_COUNT>
0

> <PUBCHEM_ATOM_UDEF_STEREO_COUNT>
0

> <PUBCHEM_BOND_DEF_STEREO_COUNT>
0

> <PUBCHEM_BOND_UDEF_STEREO_COUNT>
0

> <PUBCHEM_ISOTOPIC_ATOM_COUNT>
0

> <PUBCHEM_COMPONENT_COUNT>
1

> <PUBCHEM_CACTVS_TAUTO_COUNT>
5

> <PUBCHEM_CONFORMER_ID>
014FC33A00000004

> <PUBCHEM_MMFF94_ENERGY>
124.8518

> <PUBCHEM_FEATURE_SELFOVERLAP>
55.848

> <PUBCHEM_SHAPE_FINGERPRINT>
10076449 9 14979958069220446947
10162869 55 18342454846381138998
10299344 5 18202282490181321335
10391435 84 18040999574662370203
10533779 47 9007064594953725157
10835480 77 18334581265121113795
10883706 142 13479134588958839035
11061554 47 17676198078691032493
11135609 127 18336828710376674204
11135926 11 13984657084262965771
11315181 36 18343586236253036353
12013929 2 18260269621545712674
12013929 94 18201718505547477095
12082328 90 18131350766212383437
12089408 11 17775569723706196243
12522641 33 18334577923695404690
12643181 29 17894352190302538003
12664476 115 18187363230063386852
12758862 11 18187366549788270449
12838862 33 17313094276945137591
13553643 46 17095239233214260989
14118638 360 15410624631304558431
14142895 15 18341894116609318252
14251764 46 18186802469836320019
14344974 52 18114461250029418791
14444916 359 12103850059836997301
150020 25 18334297573646074034
15065858 18 18259983799022673547
15152005 1 15765803387169779575
15183329 4 18259983739816336627
15247644 1 16702584921730693582
15461852 350 17632858629791888605
15510794 2 18113341920969274699
15554971 5 18341897376610971201
15840311 113 18410857677460395924
15979999 66 18131067152210883593
16120349 18 18411699902982234296
1754911 235 18334856117311020911
1818759 1 12823297918602645165
20105231 36 12103852258759720572
21362267 2 18338221752200525933
21362267 20 9655569708944910589
21792934 111 18410569601287944576
232437 2 18341894082334105743
24771293 8 18335990779262806101
249057 3 16877948256686085719
395649 100 18334295409890255899
4017518 198 17775282769074916791
4073 2 18187372059572324466
4325135 7 18413108359812424510
4625314 4 18411983572423658158
6081469 158 17022619754769854486
6126387 218 18408604752117508277
6201320 215 13407336466675391399
67123 10 18342175566338243581
9663363 56 16056875814718175050
99344 41 18408042914038740815

> <PUBCHEM_SHAPE_MULTIPOLES>
625.99
39.23
2.15
0.93
18.24
0.73
-0.07
6.73
6.82
-4.09
-0.12
1.1
-0.05
-0.15

> <PUBCHEM_SHAPE_SELFOVERLAP>
1349.785

> <PUBCHEM_SHAPE_VOLUME>
343.9

> <PUBCHEM_COORDINATE_TYPE>
2
5
10

$$$$