44451889
  -OEChem-03242010103D

 64 68  0     1  0  0  0  0  0999 V2000
    9.2438    2.0210   -0.1853 O   0  0  0  0  0  0  0  0  0  0  0  0
   10.0424   -0.6004    0.2698 O   0  0  0  0  0  0  0  0  0  0  0  0
   -4.8786   -0.5871    1.4875 O   0  0  0  0  0  0  0  0  0  0  0  0
    3.6461   -0.4517   -0.1961 N   0  0  2  0  0  0  0  0  0  0  0  0
   -4.1355    0.4970   -0.4623 N   0  0  0  0  0  0  0  0  0  0  0  0
   -8.9078    1.9475    0.0497 N   0  0  0  0  0  0  0  0  0  0  0  0
    3.9654   -1.5272    0.7508 C   0  0  0  0  0  0  0  0  0  0  0  0
    4.5257    0.7079    0.0351 C   0  0  0  0  0  0  0  0  0  0  0  0
    5.3721   -2.0663    0.4715 C   0  0  0  0  0  0  0  0  0  0  0  0
    5.9935    0.3481    0.0690 C   0  0  0  0  0  0  0  0  0  0  0  0
    6.3986   -0.9737    0.3229 C   0  0  0  0  0  0  0  0  0  0  0  0
    2.2428   -0.0573   -0.0793 C   0  0  0  0  0  0  0  0  0  0  0  0
    1.3340   -1.0412   -0.8168 C   0  0  0  0  0  0  0  0  0  0  0  0
    6.9619    1.3486   -0.0891 C   0  0  0  0  0  0  0  0  0  0  0  0
    7.7641   -1.2818    0.3778 C   0  0  0  0  0  0  0  0  0  0  0  0
    8.3191    1.0337   -0.0231 C   0  0  0  0  0  0  0  0  0  0  0  0
    8.7196   -0.2804    0.2079 C   0  0  0  0  0  0  0  0  0  0  0  0
   -0.1148   -0.6338   -0.7229 C   0  0  0  0  0  0  0  0  0  0  0  0
   -0.9021   -1.0952    0.3322 C   0  0  0  0  0  0  0  0  0  0  0  0
   -0.6678    0.2045   -1.6909 C   0  0  0  0  0  0  0  0  0  0  0  0
   -2.2422   -0.7184    0.4191 C   0  0  0  0  0  0  0  0  0  0  0  0
   -2.0078    0.5813   -1.6041 C   0  0  0  0  0  0  0  0  0  0  0  0
   -2.7951    0.1199   -0.5491 C   0  0  0  0  0  0  0  0  0  0  0  0
    9.6719    2.7069    0.9897 C   0  0  0  0  0  0  0  0  0  0  0  0
   10.6772   -0.9709   -0.9526 C   0  0  0  0  0  0  0  0  0  0  0  0
   -5.0716    0.1362    0.5161 C   0  0  0  0  0  0  0  0  0  0  0  0
   -6.4260    0.7261    0.3505 C   0  0  0  0  0  0  0  0  0  0  0  0
   -7.5769   -0.0567    0.1884 C   0  0  0  0  0  0  0  0  0  0  0  0
   -8.8141    0.6043    0.0393 C   0  0  0  0  0  0  0  0  0  0  0  0
   -6.5193    2.1103    0.3616 C   0  0  0  0  0  0  0  0  0  0  0  0
   -7.5161   -1.4606    0.1728 C   0  0  0  0  0  0  0  0  0  0  0  0
   -9.9573   -0.1738   -0.1217 C   0  0  0  0  0  0  0  0  0  0  0  0
   -7.7730    2.6666    0.2086 C   0  0  0  0  0  0  0  0  0  0  0  0
   -8.6751   -2.2140    0.0101 C   0  0  0  0  0  0  0  0  0  0  0  0
   -9.8970   -1.5695   -0.1373 C   0  0  0  0  0  0  0  0  0  0  0  0
    3.2699   -2.3686    0.6645 H   0  0  0  0  0  0  0  0  0  0  0  0
    3.9013   -1.1647    1.7860 H   0  0  0  0  0  0  0  0  0  0  0  0
    4.2768    1.2006    0.9848 H   0  0  0  0  0  0  0  0  0  0  0  0
    4.3684    1.4310   -0.7752 H   0  0  0  0  0  0  0  0  0  0  0  0
    5.3615   -2.6523   -0.4565 H   0  0  0  0  0  0  0  0  0  0  0  0
    5.6611   -2.7381    1.2885 H   0  0  0  0  0  0  0  0  0  0  0  0
    1.9419    0.0527    0.9714 H   0  0  0  0  0  0  0  0  0  0  0  0
    2.0976    0.9295   -0.5407 H   0  0  0  0  0  0  0  0  0  0  0  0
    1.4327   -2.0590   -0.4220 H   0  0  0  0  0  0  0  0  0  0  0  0
    1.6248   -1.1052   -1.8740 H   0  0  0  0  0  0  0  0  0  0  0  0
    6.6553    2.3773   -0.2648 H   0  0  0  0  0  0  0  0  0  0  0  0
    8.0822   -2.3068    0.5543 H   0  0  0  0  0  0  0  0  0  0  0  0
   -0.4806   -1.7471    1.0930 H   0  0  0  0  0  0  0  0  0  0  0  0
   -0.0640    0.5719   -2.5164 H   0  0  0  0  0  0  0  0  0  0  0  0
   -2.7850   -1.1164    1.2647 H   0  0  0  0  0  0  0  0  0  0  0  0
   -2.4254    1.2355   -2.3653 H   0  0  0  0  0  0  0  0  0  0  0  0
   10.4120    3.4570    0.6980 H   0  0  0  0  0  0  0  0  0  0  0  0
   10.1381    2.0108    1.6941 H   0  0  0  0  0  0  0  0  0  0  0  0
    8.8274    3.2150    1.4662 H   0  0  0  0  0  0  0  0  0  0  0  0
   11.7274   -1.1895   -0.7406 H   0  0  0  0  0  0  0  0  0  0  0  0
   10.6296   -0.1506   -1.6757 H   0  0  0  0  0  0  0  0  0  0  0  0
   10.2101   -1.8682   -1.3705 H   0  0  0  0  0  0  0  0  0  0  0  0
   -4.4628    1.1074   -1.2083 H   0  0  0  0  0  0  0  0  0  0  0  0
   -5.6507    2.7472    0.4907 H   0  0  0  0  0  0  0  0  0  0  0  0
   -6.5781   -1.9998    0.2711 H   0  0  0  0  0  0  0  0  0  0  0  0
  -10.9268    0.3070   -0.2394 H   0  0  0  0  0  0  0  0  0  0  0  0
   -7.9078    3.7432    0.2107 H   0  0  0  0  0  0  0  0  0  0  0  0
   -8.6242   -3.2984   -0.0047 H   0  0  0  0  0  0  0  0  0  0  0  0
  -10.8062   -2.1495   -0.2656 H   0  0  0  0  0  0  0  0  0  0  0  0
  1 16  1  0  0  0  0
  1 24  1  0  0  0  0
  2 17  1  0  0  0  0
  2 25  1  0  0  0  0
  3 26  2  0  0  0  0
  4  7  1  0  0  0  0
  4  8  1  0  0  0  0
  4 12  1  0  0  0  0
  5 23  1  0  0  0  0
  5 26  1  0  0  0  0
  5 58  1  0  0  0  0
  6 29  1  0  0  0  0
  6 33  2  0  0  0  0
  7  9  1  0  0  0  0
  7 36  1  0  0  0  0
  7 37  1  0  0  0  0
  8 10  1  0  0  0  0
  8 38  1  0  0  0  0
  8 39  1  0  0  0  0
  9 11  1  0  0  0  0
  9 40  1  0  0  0  0
  9 41  1  0  0  0  0
 10 11  1  0  0  0  0
 10 14  2  0  0  0  0
 11 15  2  0  0  0  0
 12 13  1  0  0  0  0
 12 42  1  0  0  0  0
 12 43  1  0  0  0  0
 13 18  1  0  0  0  0
 13 44  1  0  0  0  0
 13 45  1  0  0  0  0
 14 16  1  0  0  0  0
 14 46  1  0  0  0  0
 15 17  1  0  0  0  0
 15 47  1  0  0  0  0
 16 17  2  0  0  0  0
 18 19  2  0  0  0  0
 18 20  1  0  0  0  0
 19 21  1  0  0  0  0
 19 48  1  0  0  0  0
 20 22  2  0  0  0  0
 20 49  1  0  0  0  0
 21 23  2  0  0  0  0
 21 50  1  0  0  0  0
 22 23  1  0  0  0  0
 22 51  1  0  0  0  0
 24 52  1  0  0  0  0
 24 53  1  0  0  0  0
 24 54  1  0  0  0  0
 25 55  1  0  0  0  0
 25 56  1  0  0  0  0
 25 57  1  0  0  0  0
 26 27  1  0  0  0  0
 27 28  1  0  0  0  0
 27 30  2  0  0  0  0
 28 29  1  0  0  0  0
 28 31  2  0  0  0  0
 29 32  2  0  0  0  0
 30 33  1  0  0  0  0
 30 59  1  0  0  0  0
 31 34  1  0  0  0  0
 31 60  1  0  0  0  0
 32 35  1  0  0  0  0
 32 61  1  0  0  0  0
 33 62  1  0  0  0  0
 34 35  2  0  0  0  0
 34 63  1  0  0  0  0
 35 64  1  0  0  0  0
M  END
> <PUBCHEM_COMPOUND_CID>
44451889

> <PUBCHEM_CONFORMER_RMSD>
1

> <PUBCHEM_CONFORMER_DIVERSEORDER>
1
27
134
16
106
104
95
80
144
18
72
139
127
108
136
100
69
126
147
51
3
77
129
89
73
62
93
44
146
99
45
14
137
12
33
148
110
49
131
87
133
120
142
7
98
94
125
112
34
81
17
140
116
57
67
71
145
65
35
30
107
42
115
91
117
121
97
66
43
22
39
123
85
31
122
132
9
76
15
58
118
63
32
74
6
68
83
19
46
2
143
86
36
128
103
78
4
90
119
111
21
61
56
102
53
130
37
52
5
13
82
54
28
149
92
135
79
60
114
141
20
124
25
113
38
75
55
47
26
24
64
11
40
8
138
96
48
109
70
50
41
105
29
23
101
88
59
84
10

> <PUBCHEM_MMFF94_PARTIAL_CHARGES>
47
1 -0.36
10 -0.14
11 -0.14
12 0.27
13 0.14
14 -0.15
15 -0.15
16 0.08
17 0.08
18 -0.14
19 -0.15
2 -0.36
20 -0.15
21 -0.15
22 -0.15
23 0.12
24 0.28
25 0.28
26 0.54
27 0.09
29 0.31
3 -0.57
30 -0.15
31 -0.15
32 -0.15
33 0.16
34 -0.15
35 -0.15
4 -0.81
46 0.15
47 0.15
48 0.15
49 0.15
5 -0.55
50 0.15
51 0.15
58 0.37
59 0.15
6 -0.62
60 0.15
61 0.15
62 0.15
63 0.15
64 0.15
7 0.27
8 0.41
9 0.14

> <PUBCHEM_EFFECTIVE_ROTOR_COUNT>
8.8

> <PUBCHEM_PHARMACOPHORE_FEATURES>
11
1 1 acceptor
1 2 acceptor
1 3 acceptor
1 4 cation
1 5 donor
1 6 acceptor
6 10 11 14 15 16 17 rings
6 18 19 20 21 22 23 rings
6 28 29 31 32 34 35 rings
6 4 7 8 9 10 11 rings
6 6 27 28 29 30 33 rings

> <PUBCHEM_HEAVY_ATOM_COUNT>
35

> <PUBCHEM_ATOM_DEF_STEREO_COUNT>
0

> <PUBCHEM_ATOM_UDEF_STEREO_COUNT>
0

> <PUBCHEM_BOND_DEF_STEREO_COUNT>
0

> <PUBCHEM_BOND_UDEF_STEREO_COUNT>
0

> <PUBCHEM_ISOTOPIC_ATOM_COUNT>
0

> <PUBCHEM_COMPONENT_COUNT>
1

> <PUBCHEM_CACTVS_TAUTO_COUNT>
2

> <PUBCHEM_CONFORMER_ID>
02A6483100000001

> <PUBCHEM_MMFF94_ENERGY>
129.708

> <PUBCHEM_FEATURE_SELFOVERLAP>
55.881

> <PUBCHEM_SHAPE_FINGERPRINT>
10 15 18060137635637928375
10580692 12 18410573998901906075
106641 1 18335420183950592959
11135926 11 15864070954231880211
11315181 36 18408886223315845969
11672396 167 8718288831935527732
11966995 178 18410013218418503342
12013929 2 18336265660783799826
12013929 94 18412545449115589211
12089408 11 18412262822153433939
12098696 120 17203608173226232038
12522641 33 18409728435326055351
12643181 29 15864076490339099747
12664476 115 18040151812943413244
12838862 33 16153420662779134011
13740195 50 18411417336424220209
14118638 360 15430306993206042008
14150022 121 18339643335500311573
14251764 46 18413389834535959870
15061470 23 18410008831959506428
15065858 18 18335136492570427243
15219723 13 17895183378723674178
15392192 104 18272931617945251766
15461852 350 18412829093087272223
15510794 2 18343025467104433966
15530121 191 18130780166047470265
15773216 30 13182478628796302836
15840311 113 18409451406478493548
17686467 74 18260830419498901153
19315958 150 18411423873423304906
20105231 36 10087625028357092293
21095123 145 17346313826493310863
21362267 2 18272072925682746048
21362267 313 18265048029653493826
21792934 111 17095522906955185748
232437 2 18408604751748210482
24771293 8 18114466682667046535
249057 3 15339111359930811448
3092352 35 17988922266963973854
335507 130 18060136566349236599
395649 100 18334294319185016035
5381727 24 18202844353176051982
59521660 218 16128101031763027599
6126387 218 17603864482424122805
67123 10 18410855464639582379
9663363 56 14345794955097020854
99344 41 18408042901306858803
9937071 3 12468631725786268968
9953998 17 17894633656039954083
9962374 69 15936698158783977839

> <PUBCHEM_SHAPE_MULTIPOLES>
687.73
45.35
2.2
0.98
15.76
0.9
-0.2
6.33
4.23
-0.41
0.39
0.15
0.01
0.34

> <PUBCHEM_SHAPE_SELFOVERLAP>
1505.859

> <PUBCHEM_SHAPE_VOLUME>
371.6

> <PUBCHEM_COORDINATE_TYPE>
2
5
10

$$$$