44451888
  -OEChem-03242010103D

 69 72  0     1  0  0  0  0  0999 V2000
    9.6026    1.5652   -1.8417 O   0  0  0  0  0  0  0  0  0  0  0  0
   10.6972    0.0925    0.2438 O   0  0  0  0  0  0  0  0  0  0  0  0
   -4.0695   -0.6350   -1.7436 O   0  0  0  0  0  0  0  0  0  0  0  0
   -7.7439    2.8577    0.8911 O   0  0  0  0  0  0  0  0  0  0  0  0
   -9.7664    1.0102    0.4214 O   0  0  0  0  0  0  0  0  0  0  0  0
   -6.5113   -2.3910   -2.3206 O   0  5  0  0  0  0  0  0  0  0  0  0
   -6.3023   -3.1407   -0.2680 O   0  0  0  0  0  0  0  0  0  0  0  0
    4.3067   -0.3959    0.5153 N   0  0  2  0  0  0  0  0  0  0  0  0
   -3.5355   -0.2391    0.5119 N   0  0  0  0  0  0  0  0  0  0  0  0
   -6.5314   -2.2139   -1.0800 N   0  3  0  0  0  0  0  0  0  0  0  0
    4.7839   -0.4572    1.9024 C   0  0  0  0  0  0  0  0  0  0  0  0
    5.0676    0.6147   -0.2407 C   0  0  0  0  0  0  0  0  0  0  0  0
    6.2250   -0.9762    1.9347 C   0  0  0  0  0  0  0  0  0  0  0  0
    6.5653    0.4470   -0.1234 C   0  0  0  0  0  0  0  0  0  0  0  0
    7.1208   -0.2778    0.9449 C   0  0  0  0  0  0  0  0  0  0  0  0
    2.8765   -0.0940    0.4716 C   0  0  0  0  0  0  0  0  0  0  0  0
    2.0436   -1.3449    0.7532 C   0  0  0  0  0  0  0  0  0  0  0  0
    7.4128    1.0720   -1.0483 C   0  0  0  0  0  0  0  0  0  0  0  0
    8.5125   -0.3984    1.0515 C   0  0  0  0  0  0  0  0  0  0  0  0
    8.7974    0.9544   -0.9282 C   0  0  0  0  0  0  0  0  0  0  0  0
    9.3464    0.2182    0.1192 C   0  0  0  0  0  0  0  0  0  0  0  0
    0.5658   -1.0520    0.6893 C   0  0  0  0  0  0  0  0  0  0  0  0
   -0.1163   -0.6520    1.8385 C   0  0  0  0  0  0  0  0  0  0  0  0
   -0.1192   -1.1810   -0.5188 C   0  0  0  0  0  0  0  0  0  0  0  0
   -1.4833   -0.3811    1.7795 C   0  0  0  0  0  0  0  0  0  0  0  0
   -1.4862   -0.9101   -0.5779 C   0  0  0  0  0  0  0  0  0  0  0  0
   -2.1682   -0.5102    0.5712 C   0  0  0  0  0  0  0  0  0  0  0  0
    8.9608    2.2993   -2.8826 C   0  0  0  0  0  0  0  0  0  0  0  0
   11.3086   -1.0141   -0.4165 C   0  0  0  0  0  0  0  0  0  0  0  0
   -4.3822   -0.3134   -0.6022 C   0  0  0  0  0  0  0  0  0  0  0  0
   -5.8090    0.0115   -0.3409 C   0  0  0  0  0  0  0  0  0  0  0  0
   -6.8242   -0.9159   -0.5761 C   0  0  0  0  0  0  0  0  0  0  0  0
   -6.1223    1.2783    0.1516 C   0  0  0  0  0  0  0  0  0  0  0  0
   -7.4507    1.6178    0.4088 C   0  0  0  0  0  0  0  0  0  0  0  0
   -8.1524   -0.5763   -0.3188 C   0  0  0  0  0  0  0  0  0  0  0  0
   -8.4657    0.6904    0.1736 C   0  0  0  0  0  0  0  0  0  0  0  0
   -6.6483    3.7459    1.1038 C   0  0  0  0  0  0  0  0  0  0  0  0
  -10.5051    1.5952   -0.6493 C   0  0  0  0  0  0  0  0  0  0  0  0
    4.1789   -1.1346    2.5141 H   0  0  0  0  0  0  0  0  0  0  0  0
    4.7312    0.5332    2.3752 H   0  0  0  0  0  0  0  0  0  0  0  0
    4.8133    1.6274    0.1004 H   0  0  0  0  0  0  0  0  0  0  0  0
    4.7944    0.5335   -1.3003 H   0  0  0  0  0  0  0  0  0  0  0  0
    6.2327   -2.0489    1.7031 H   0  0  0  0  0  0  0  0  0  0  0  0
    6.6230   -0.8497    2.9487 H   0  0  0  0  0  0  0  0  0  0  0  0
    2.6164    0.7216    1.1599 H   0  0  0  0  0  0  0  0  0  0  0  0
    2.6049    0.2595   -0.5330 H   0  0  0  0  0  0  0  0  0  0  0  0
    2.2692   -1.7694    1.7384 H   0  0  0  0  0  0  0  0  0  0  0  0
    2.2885   -2.1334    0.0290 H   0  0  0  0  0  0  0  0  0  0  0  0
    6.9285    1.6370   -1.8381 H   0  0  0  0  0  0  0  0  0  0  0  0
    8.9461   -0.9749    1.8654 H   0  0  0  0  0  0  0  0  0  0  0  0
    0.4071   -0.5459    2.7851 H   0  0  0  0  0  0  0  0  0  0  0  0
    0.4029   -1.4902   -1.4206 H   0  0  0  0  0  0  0  0  0  0  0  0
   -2.0020   -0.0697    2.6827 H   0  0  0  0  0  0  0  0  0  0  0  0
   -1.9444   -1.0326   -1.5490 H   0  0  0  0  0  0  0  0  0  0  0  0
    9.7507    2.7153   -3.5168 H   0  0  0  0  0  0  0  0  0  0  0  0
    8.3922    3.1479   -2.4871 H   0  0  0  0  0  0  0  0  0  0  0  0
    8.3524    1.6486   -3.5201 H   0  0  0  0  0  0  0  0  0  0  0  0
   12.3852   -0.9721   -0.2301 H   0  0  0  0  0  0  0  0  0  0  0  0
   11.1381   -0.9610   -1.4964 H   0  0  0  0  0  0  0  0  0  0  0  0
   10.9213   -1.9583   -0.0207 H   0  0  0  0  0  0  0  0  0  0  0  0
   -3.9609    0.0368    1.3946 H   0  0  0  0  0  0  0  0  0  0  0  0
   -5.2950    1.9625    0.3088 H   0  0  0  0  0  0  0  0  0  0  0  0
   -8.9497   -1.2942   -0.4993 H   0  0  0  0  0  0  0  0  0  0  0  0
   -7.0640    4.6826    1.4896 H   0  0  0  0  0  0  0  0  0  0  0  0
   -6.1372    3.9887    0.1659 H   0  0  0  0  0  0  0  0  0  0  0  0
   -5.9619    3.3654    1.8680 H   0  0  0  0  0  0  0  0  0  0  0  0
  -11.5191    1.7994   -0.2947 H   0  0  0  0  0  0  0  0  0  0  0  0
  -10.5629    0.9051   -1.4970 H   0  0  0  0  0  0  0  0  0  0  0  0
  -10.0474    2.5387   -0.9632 H   0  0  0  0  0  0  0  0  0  0  0  0
  1 20  1  0  0  0  0
  1 28  1  0  0  0  0
  2 21  1  0  0  0  0
  2 29  1  0  0  0  0
  3 30  2  0  0  0  0
  4 34  1  0  0  0  0
  4 37  1  0  0  0  0
  5 36  1  0  0  0  0
  5 38  1  0  0  0  0
  6 10  1  0  0  0  0
  7 10  2  0  0  0  0
  8 11  1  0  0  0  0
  8 12  1  0  0  0  0
  8 16  1  0  0  0  0
  9 27  1  0  0  0  0
  9 30  1  0  0  0  0
  9 61  1  0  0  0  0
 10 32  1  0  0  0  0
 11 13  1  0  0  0  0
 11 39  1  0  0  0  0
 11 40  1  0  0  0  0
 12 14  1  0  0  0  0
 12 41  1  0  0  0  0
 12 42  1  0  0  0  0
 13 15  1  0  0  0  0
 13 43  1  0  0  0  0
 13 44  1  0  0  0  0
 14 15  1  0  0  0  0
 14 18  2  0  0  0  0
 15 19  2  0  0  0  0
 16 17  1  0  0  0  0
 16 45  1  0  0  0  0
 16 46  1  0  0  0  0
 17 22  1  0  0  0  0
 17 47  1  0  0  0  0
 17 48  1  0  0  0  0
 18 20  1  0  0  0  0
 18 49  1  0  0  0  0
 19 21  1  0  0  0  0
 19 50  1  0  0  0  0
 20 21  2  0  0  0  0
 22 23  2  0  0  0  0
 22 24  1  0  0  0  0
 23 25  1  0  0  0  0
 23 51  1  0  0  0  0
 24 26  2  0  0  0  0
 24 52  1  0  0  0  0
 25 27  2  0  0  0  0
 25 53  1  0  0  0  0
 26 27  1  0  0  0  0
 26 54  1  0  0  0  0
 28 55  1  0  0  0  0
 28 56  1  0  0  0  0
 28 57  1  0  0  0  0
 29 58  1  0  0  0  0
 29 59  1  0  0  0  0
 29 60  1  0  0  0  0
 30 31  1  0  0  0  0
 31 32  1  0  0  0  0
 31 33  2  0  0  0  0
 32 35  2  0  0  0  0
 33 34  1  0  0  0  0
 33 62  1  0  0  0  0
 34 36  2  0  0  0  0
 35 36  1  0  0  0  0
 35 63  1  0  0  0  0
 37 64  1  0  0  0  0
 37 65  1  0  0  0  0
 37 66  1  0  0  0  0
 38 67  1  0  0  0  0
 38 68  1  0  0  0  0
 38 69  1  0  0  0  0
M  CHG  2   6  -1  10   1
M  END
> <PUBCHEM_COMPOUND_CID>
44451888

> <PUBCHEM_CONFORMER_RMSD>
1.2

> <PUBCHEM_CONFORMER_DIVERSEORDER>
2
69
71
27
22
12
43
62
39
48
35
89
72
29
95
73
55
11
93
44
18
45
49
87
66
88
50
38
70
82
80
46
24
92
41
54
17
81
5
85
4
86
94
59
52
51
15
53
1
8
30
78
83
90
61
6
60
33
91
75
47
56
74
3
13
63
20
23
84
40
76
10
77
25
58
14
65
28
57
16
42
31
67
79
36
9
37
21
64
7
68
32
19
26
34

> <PUBCHEM_MMFF94_PARTIAL_CHARGES>
47
1 -0.36
10 0.91
11 0.27
12 0.41
13 0.14
14 -0.14
15 -0.14
16 0.27
17 0.14
18 -0.15
19 -0.15
2 -0.36
20 0.08
21 0.08
22 -0.14
23 -0.15
24 -0.15
25 -0.15
26 -0.15
27 0.12
28 0.28
29 0.28
3 -0.57
30 0.54
31 0.09
32 0.13
33 -0.15
34 0.08
35 -0.15
36 0.08
37 0.28
38 0.28
4 -0.36
49 0.15
5 -0.36
50 0.15
51 0.15
52 0.15
53 0.15
54 0.15
6 -0.52
61 0.37
62 0.15
63 0.15
7 -0.52
8 -0.81
9 -0.55

> <PUBCHEM_EFFECTIVE_ROTOR_COUNT>
11.8

> <PUBCHEM_PHARMACOPHORE_FEATURES>
14
1 1 acceptor
1 2 acceptor
1 3 acceptor
1 4 acceptor
1 5 acceptor
1 6 acceptor
1 6 anion
1 7 acceptor
1 8 cation
1 9 donor
6 14 15 18 19 20 21 rings
6 22 23 24 25 26 27 rings
6 31 32 33 34 35 36 rings
6 8 11 12 13 14 15 rings

> <PUBCHEM_HEAVY_ATOM_COUNT>
38

> <PUBCHEM_ATOM_DEF_STEREO_COUNT>
0

> <PUBCHEM_ATOM_UDEF_STEREO_COUNT>
0

> <PUBCHEM_BOND_DEF_STEREO_COUNT>
0

> <PUBCHEM_BOND_UDEF_STEREO_COUNT>
0

> <PUBCHEM_ISOTOPIC_ATOM_COUNT>
0

> <PUBCHEM_COMPONENT_COUNT>
1

> <PUBCHEM_CACTVS_TAUTO_COUNT>
2

> <PUBCHEM_CONFORMER_ID>
02A6483000000002

> <PUBCHEM_MMFF94_ENERGY>
156.4659

> <PUBCHEM_FEATURE_SELFOVERLAP>
71.163

> <PUBCHEM_SHAPE_FINGERPRINT>
10 15 15068618288632128954
10533779 47 14635148980344942072
106641 1 14562531769063175443
11061554 47 18335413574629745624
11181472 205 18337394847047291608
12082328 90 18342452643231955255
12089408 11 18260824916870419394
12098696 120 16343984711254577398
12125137 17 18186528687373351060
12144603 126 18333169457720508592
12522641 33 18333729100476181722
13811026 1 14908184149166758338
14117953 113 17346880057274439552
14118638 360 15697726913000591314
14428016 248 18186804677444287381
14849402 71 17894915156686878685
150020 25 16774078483762508362
15061470 23 18272647962037219056
15065858 18 17346595288738152010
15198563 99 16630254618802380488
15247644 1 10879991371925385532
15461852 350 18342458174838595914
15510794 2 15913042148826870039
1577012 14 18408036303883105762
15840311 113 17313107476144529862
16728433 110 15984817165743026906
18603816 31 10087629395742791505
19301679 30 8862405123701083562
19315958 150 16081085970716010986
20105231 36 16916785232056805255
2026 5 13110422122002083804
212700 22 14405186166956817604
21792961 116 16917349243188505603
21895431 317 13398366620999130684
24204213 310 18334582300056680965
24771293 8 18113900450704587399
3092352 35 18334573546738413483
335507 130 18271806865374601071
3711267 37 17749114365714419004
4017518 198 15626219131459985885
4073 2 18408887318053459155
4173938 188 16009039402138901881
5028188 123 18272083937650864343
59682541 35 14129058119112099792
6081469 158 16559033788321785680
6691757 9 16588027922393421307
9663363 56 16845288342658502906
9937071 3 15195570113637509622
9962374 69 11311766268590790882

> <PUBCHEM_SHAPE_MULTIPOLES>
725.99
45.18
2.37
1.77
32.81
1.31
-0.42
18.67
-9.71
-4.14
-0.36
1.15
0.15
-6.77

> <PUBCHEM_SHAPE_SELFOVERLAP>
1559.179

> <PUBCHEM_SHAPE_VOLUME>
401.7

> <PUBCHEM_COORDINATE_TYPE>
2
5
10

$$$$