20646908
  -OEChem-03242010103D

 53 56  0     1  0  0  0  0  0999 V2000
   -4.4283    1.0313   -1.4857 O   0  0  0  0  0  0  0  0  0  0  0  0
    4.0440   -0.2610   -0.1176 N   0  0  2  0  0  0  0  0  0  0  0  0
   -3.7898   -0.5652    0.1180 N   0  0  0  0  0  0  0  0  0  0  0  0
   -6.0825    2.5852    0.4551 N   0  0  0  0  0  0  0  0  0  0  0  0
    4.5907   -1.4092    0.6159 C   0  0  0  0  0  0  0  0  0  0  0  0
    4.7486    0.9737    0.2709 C   0  0  0  0  0  0  0  0  0  0  0  0
    6.0404   -1.6584    0.1871 C   0  0  0  0  0  0  0  0  0  0  0  0
    2.6082   -0.1257    0.1250 C   0  0  0  0  0  0  0  0  0  0  0  0
    6.2530    0.8580    0.1791 C   0  0  0  0  0  0  0  0  0  0  0  0
    6.8735   -0.4031    0.1841 C   0  0  0  0  0  0  0  0  0  0  0  0
    1.8127   -1.1121   -0.7309 C   0  0  0  0  0  0  0  0  0  0  0  0
    7.0424    2.0157    0.1533 C   0  0  0  0  0  0  0  0  0  0  0  0
    8.2705   -0.4886    0.1255 C   0  0  0  0  0  0  0  0  0  0  0  0
    0.3286   -0.9676   -0.5066 C   0  0  0  0  0  0  0  0  0  0  0  0
    8.4331    1.9204    0.1049 C   0  0  0  0  0  0  0  0  0  0  0  0
    9.0462    0.6696    0.0885 C   0  0  0  0  0  0  0  0  0  0  0  0
   -0.3027   -1.7160    0.4869 C   0  0  0  0  0  0  0  0  0  0  0  0
   -0.4128   -0.0850   -1.2921 C   0  0  0  0  0  0  0  0  0  0  0  0
   -1.6752   -1.5819    0.6950 C   0  0  0  0  0  0  0  0  0  0  0  0
   -1.7856    0.0493   -1.0840 C   0  0  0  0  0  0  0  0  0  0  0  0
   -2.4168   -0.6994   -0.0905 C   0  0  0  0  0  0  0  0  0  0  0  0
   -4.6894    0.2631   -0.5661 C   0  0  0  0  0  0  0  0  0  0  0  0
   -6.0968    0.2046   -0.0912 C   0  0  0  0  0  0  0  0  0  0  0  0
   -6.7458    1.3390    0.3964 C   0  0  0  0  0  0  0  0  0  0  0  0
   -6.7692   -1.0165   -0.1403 C   0  0  0  0  0  0  0  0  0  0  0  0
   -8.0671    1.2521    0.8348 C   0  0  0  0  0  0  0  0  0  0  0  0
   -8.0906   -1.1033    0.2983 C   0  0  0  0  0  0  0  0  0  0  0  0
   -8.7394    0.0310    0.7859 C   0  0  0  0  0  0  0  0  0  0  0  0
    4.0286   -2.3277    0.4167 H   0  0  0  0  0  0  0  0  0  0  0  0
    4.5446   -1.2351    1.6998 H   0  0  0  0  0  0  0  0  0  0  0  0
    4.4940    1.2581    1.3009 H   0  0  0  0  0  0  0  0  0  0  0  0
    4.4255    1.7832   -0.3957 H   0  0  0  0  0  0  0  0  0  0  0  0
    6.0548   -2.0792   -0.8264 H   0  0  0  0  0  0  0  0  0  0  0  0
    6.4862   -2.3978    0.8631 H   0  0  0  0  0  0  0  0  0  0  0  0
    2.3681   -0.2387    1.1909 H   0  0  0  0  0  0  0  0  0  0  0  0
    2.2810    0.8858   -0.1536 H   0  0  0  0  0  0  0  0  0  0  0  0
    2.0943   -2.1505   -0.5209 H   0  0  0  0  0  0  0  0  0  0  0  0
    2.0357   -0.9551   -1.7948 H   0  0  0  0  0  0  0  0  0  0  0  0
    6.5768    2.9979    0.1711 H   0  0  0  0  0  0  0  0  0  0  0  0
    8.7606   -1.4587    0.1081 H   0  0  0  0  0  0  0  0  0  0  0  0
    9.0381    2.8220    0.0807 H   0  0  0  0  0  0  0  0  0  0  0  0
   10.1290    0.5963    0.0471 H   0  0  0  0  0  0  0  0  0  0  0  0
    0.2649   -2.4052    1.1066 H   0  0  0  0  0  0  0  0  0  0  0  0
    0.0694    0.5045   -2.0676 H   0  0  0  0  0  0  0  0  0  0  0  0
   -2.1540   -2.1711    1.4732 H   0  0  0  0  0  0  0  0  0  0  0  0
   -2.2892    0.7529   -1.7316 H   0  0  0  0  0  0  0  0  0  0  0  0
   -4.1720   -1.1383    0.8676 H   0  0  0  0  0  0  0  0  0  0  0  0
   -6.2796   -1.9088   -0.5224 H   0  0  0  0  0  0  0  0  0  0  0  0
   -8.5849    2.1282    1.2172 H   0  0  0  0  0  0  0  0  0  0  0  0
   -8.6147   -2.0537    0.2589 H   0  0  0  0  0  0  0  0  0  0  0  0
   -9.7683   -0.0367    1.1271 H   0  0  0  0  0  0  0  0  0  0  0  0
   -5.1247    2.6748    0.1451 H   0  0  0  0  0  0  0  0  0  0  0  0
   -6.5694    3.3969    0.8120 H   0  0  0  0  0  0  0  0  0  0  0  0
  1 22  2  0  0  0  0
  2  5  1  0  0  0  0
  2  6  1  0  0  0  0
  2  8  1  0  0  0  0
  3 21  1  0  0  0  0
  3 22  1  0  0  0  0
  3 47  1  0  0  0  0
  4 24  1  0  0  0  0
  4 52  1  0  0  0  0
  4 53  1  0  0  0  0
  5  7  1  0  0  0  0
  5 29  1  0  0  0  0
  5 30  1  0  0  0  0
  6  9  1  0  0  0  0
  6 31  1  0  0  0  0
  6 32  1  0  0  0  0
  7 10  1  0  0  0  0
  7 33  1  0  0  0  0
  7 34  1  0  0  0  0
  8 11  1  0  0  0  0
  8 35  1  0  0  0  0
  8 36  1  0  0  0  0
  9 10  1  0  0  0  0
  9 12  2  0  0  0  0
 10 13  2  0  0  0  0
 11 14  1  0  0  0  0
 11 37  1  0  0  0  0
 11 38  1  0  0  0  0
 12 15  1  0  0  0  0
 12 39  1  0  0  0  0
 13 16  1  0  0  0  0
 13 40  1  0  0  0  0
 14 17  2  0  0  0  0
 14 18  1  0  0  0  0
 15 16  2  0  0  0  0
 15 41  1  0  0  0  0
 16 42  1  0  0  0  0
 17 19  1  0  0  0  0
 17 43  1  0  0  0  0
 18 20  2  0  0  0  0
 18 44  1  0  0  0  0
 19 21  2  0  0  0  0
 19 45  1  0  0  0  0
 20 21  1  0  0  0  0
 20 46  1  0  0  0  0
 22 23  1  0  0  0  0
 23 24  1  0  0  0  0
 23 25  2  0  0  0  0
 24 26  2  0  0  0  0
 25 27  1  0  0  0  0
 25 48  1  0  0  0  0
 26 28  1  0  0  0  0
 26 49  1  0  0  0  0
 27 28  2  0  0  0  0
 27 50  1  0  0  0  0
 28 51  1  0  0  0  0
M  END
> <PUBCHEM_COMPOUND_CID>
20646908

> <PUBCHEM_CONFORMER_RMSD>
0.8

> <PUBCHEM_CONFORMER_DIVERSEORDER>
1
63
95
137
139
78
66
134
5
138
115
125
90
20
103
143
79
140
105
12
23
145
33
53
129
141
119
93
124
15
84
97
127
131
81
88
111
94
24
99
11
106
6
142
135
65
117
31
128
74
18
133
71
98
17
120
43
108
40
7
100
51
112
56
104
136
30
19
126
54
114
29
68
85
109
28
3
144
32
26
45
25
8
132
113
2
13
4
72
9
107
73
76
102
92
122
14
55
10
110
82
34
80
121
42
16
52
44
116
69
130
101
41
118
35
61
22
48
123
87
37
49
36
75
86
57
46
58
70
67
47
64
50
38
21
62
77
39
91
60
89
27
59
83
96

> <PUBCHEM_MMFF94_PARTIAL_CHARGES>
43
1 -0.57
10 -0.14
11 0.14
12 -0.15
13 -0.15
14 -0.14
15 -0.15
16 -0.15
17 -0.15
18 -0.15
19 -0.15
2 -0.81
20 -0.15
21 0.12
22 0.54
23 0.09
24 0.1
25 -0.15
26 -0.15
27 -0.15
28 -0.15
3 -0.55
39 0.15
4 -0.9
40 0.15
41 0.15
42 0.15
43 0.15
44 0.15
45 0.15
46 0.15
47 0.37
48 0.15
49 0.15
5 0.27
50 0.15
51 0.15
52 0.4
53 0.4
6 0.41
7 0.14
8 0.27
9 -0.14

> <PUBCHEM_EFFECTIVE_ROTOR_COUNT>
6.8

> <PUBCHEM_PHARMACOPHORE_FEATURES>
9
1 1 acceptor
1 2 cation
1 3 donor
1 4 cation
1 4 donor
6 14 17 18 19 20 21 rings
6 2 5 6 7 9 10 rings
6 23 24 25 26 27 28 rings
6 9 10 12 13 15 16 rings

> <PUBCHEM_HEAVY_ATOM_COUNT>
28

> <PUBCHEM_ATOM_DEF_STEREO_COUNT>
0

> <PUBCHEM_ATOM_UDEF_STEREO_COUNT>
0

> <PUBCHEM_BOND_DEF_STEREO_COUNT>
0

> <PUBCHEM_BOND_UDEF_STEREO_COUNT>
0

> <PUBCHEM_ISOTOPIC_ATOM_COUNT>
0

> <PUBCHEM_COMPONENT_COUNT>
1

> <PUBCHEM_CACTVS_TAUTO_COUNT>
5

> <PUBCHEM_CONFORMER_ID>
013B0BFC00000001

> <PUBCHEM_MMFF94_ENERGY>
93.4487

> <PUBCHEM_FEATURE_SELFOVERLAP>
45.693

> <PUBCHEM_SHAPE_FINGERPRINT>
10 15 18040434399393422466
10100884 174 18044098089300016243
10369192 42 18202562870046704829
106641 1 17894351094605361515
11181472 205 17202776907960012770
11315181 36 18410572882647843279
11386260 185 13326560874757542394
12082328 90 18202279225906274911
12089408 11 17989484134748848310
12522641 33 18202563964768422159
12539745 222 13479119186177922998
12539765 74 18059862731254786598
12643181 29 11887949965207126117
13540713 5 16590578900765106959
14117953 113 14117800232572429600
14150022 121 18337110069183773429
14178184 131 12036034390291551865
14251764 18 18259705605501028447
14251764 46 18408603665379791567
14617042 71 18336548339433489820
14849402 71 18410576227552498545
14933364 13 18411698776999020390
15183329 4 15339119031027199779
15247644 1 13479131294165757248
15461852 350 17632294618443852239
15690457 1 11674878901005066848
15706992 2 18272381879648128313
1577012 14 17774995799990274574
15840311 113 18408326614625850996
16989713 51 16701162244822825839
17686467 74 18334012835438145721
18603816 31 12252192909140068993
20505436 4 18202557389384605406
21033648 29 18266727156319462776
21095123 145 17203607125734675575
21130935 74 18187928322789257875
22224240 67 17821728338184044403
232437 2 18261110764851733658
23576562 1 16127511830542633553
24771293 8 18334860511226095413
3092352 35 17989203750298575534
3383291 50 16370730331273128945
3711267 37 18201167597738439609
395649 100 18339637958464968879
4073 2 18333734649684574458
4093350 32 18131069312663244494
4325135 7 9079116661394544840
4339292 15 14562819902489370291
44280117 145 18125720333779451199
5283156 175 8646774395949981554
5758199 1 18260267443089938939
59521270 166 12247689257376588633
59682541 35 17894917334535289395
6081469 158 14908187439333369808
67123 10 18411981377663532891
9689198 14 18343584035916295736
9953998 17 18114184138544217731
9962374 69 15502664852961271271

> <PUBCHEM_SHAPE_MULTIPOLES>
555.41
33.29
1.9
0.92
3.72
0.58
-0.17
12.27
6.6
0.55
0.3
-0.79
0.02
-0.28

> <PUBCHEM_SHAPE_SELFOVERLAP>
1204.938

> <PUBCHEM_SHAPE_VOLUME>
301.9

> <PUBCHEM_COORDINATE_TYPE>
2
5
10

$$$$