20646970
  -OEChem-03242010103D

 53 56  0     1  0  0  0  0  0999 V2000
   -3.8342   -0.9257    1.6390 O   0  0  0  0  0  0  0  0  0  0  0  0
   -6.2659    2.9188    0.8004 O   0  5  0  0  0  0  0  0  0  0  0  0
   -4.3849    1.7969    0.9480 O   0  0  0  0  0  0  0  0  0  0  0  0
    4.3980    0.5967   -0.6335 N   0  0  1  0  0  0  0  0  0  0  0  0
   -3.3587   -0.4551   -0.6151 N   0  0  0  0  0  0  0  0  0  0  0  0
   -5.6153    1.8509    0.7155 N   0  3  0  0  0  0  0  0  0  0  0  0
    4.9945    1.9271   -0.4616 C   0  0  0  0  0  0  0  0  0  0  0  0
    4.9239   -0.3322    0.3824 C   0  0  0  0  0  0  0  0  0  0  0  0
    6.4969    1.8659   -0.7562 C   0  0  0  0  0  0  0  0  0  0  0  0
    2.9395    0.6675   -0.5522 C   0  0  0  0  0  0  0  0  0  0  0  0
    6.4337   -0.3511    0.4512 C   0  0  0  0  0  0  0  0  0  0  0  0
    7.1847    0.7238   -0.0549 C   0  0  0  0  0  0  0  0  0  0  0  0
    2.3083   -0.6963   -0.8351 C   0  0  0  0  0  0  0  0  0  0  0  0
    7.0911   -1.4170    1.0803 C   0  0  0  0  0  0  0  0  0  0  0  0
    8.5820    0.6997    0.0421 C   0  0  0  0  0  0  0  0  0  0  0  0
    0.8029   -0.6322   -0.7765 C   0  0  0  0  0  0  0  0  0  0  0  0
    8.4822   -1.4275    1.1805 C   0  0  0  0  0  0  0  0  0  0  0  0
    9.2269   -0.3715    0.6600 C   0  0  0  0  0  0  0  0  0  0  0  0
    0.0883   -0.3427   -1.9292 C   0  0  0  0  0  0  0  0  0  0  0  0
    0.1577   -0.8640    0.4288 C   0  0  0  0  0  0  0  0  0  0  0  0
   -1.3042   -0.2834   -1.8753 C   0  0  0  0  0  0  0  0  0  0  0  0
   -1.2349   -0.8048    0.4827 C   0  0  0  0  0  0  0  0  0  0  0  0
   -1.9659   -0.5144   -0.6693 C   0  0  0  0  0  0  0  0  0  0  0  0
   -4.1882   -0.6567    0.4961 C   0  0  0  0  0  0  0  0  0  0  0  0
   -5.6468   -0.5532    0.2295 C   0  0  0  0  0  0  0  0  0  0  0  0
   -6.2970    0.6588    0.3428 C   0  0  0  0  0  0  0  0  0  0  0  0
   -6.3102   -1.7099   -0.1321 C   0  0  0  0  0  0  0  0  0  0  0  0
   -7.6665    0.7183    0.0845 C   0  0  0  0  0  0  0  0  0  0  0  0
   -7.6798   -1.6504   -0.3904 C   0  0  0  0  0  0  0  0  0  0  0  0
   -8.3579   -0.4364   -0.2822 C   0  0  0  0  0  0  0  0  0  0  0  0
    4.5425    2.6475   -1.1544 H   0  0  0  0  0  0  0  0  0  0  0  0
    4.8220    2.3034    0.5560 H   0  0  0  0  0  0  0  0  0  0  0  0
    4.5401   -0.0867    1.3815 H   0  0  0  0  0  0  0  0  0  0  0  0
    4.6285   -1.3567    0.1351 H   0  0  0  0  0  0  0  0  0  0  0  0
    6.9542    2.8162   -0.4559 H   0  0  0  0  0  0  0  0  0  0  0  0
    6.6528    1.7457   -1.8360 H   0  0  0  0  0  0  0  0  0  0  0  0
    2.5694    1.3833   -1.2982 H   0  0  0  0  0  0  0  0  0  0  0  0
    2.6166    1.0417    0.4290 H   0  0  0  0  0  0  0  0  0  0  0  0
    2.6224   -1.0666   -1.8201 H   0  0  0  0  0  0  0  0  0  0  0  0
    2.6197   -1.4593   -0.1136 H   0  0  0  0  0  0  0  0  0  0  0  0
    6.5221   -2.2447    1.4961 H   0  0  0  0  0  0  0  0  0  0  0  0
    9.1745    1.5156   -0.3640 H   0  0  0  0  0  0  0  0  0  0  0  0
    8.9849   -2.2591    1.6656 H   0  0  0  0  0  0  0  0  0  0  0  0
   10.3104   -0.3822    0.7352 H   0  0  0  0  0  0  0  0  0  0  0  0
    0.5948   -0.1594   -2.8726 H   0  0  0  0  0  0  0  0  0  0  0  0
    0.7189   -1.0880    1.3317 H   0  0  0  0  0  0  0  0  0  0  0  0
   -1.8611   -0.0555   -2.7806 H   0  0  0  0  0  0  0  0  0  0  0  0
   -1.6726   -0.9941    1.4526 H   0  0  0  0  0  0  0  0  0  0  0  0
   -3.8210   -0.2416   -1.4966 H   0  0  0  0  0  0  0  0  0  0  0  0
   -5.7890   -2.6588   -0.2185 H   0  0  0  0  0  0  0  0  0  0  0  0
   -8.2314    1.6442    0.1576 H   0  0  0  0  0  0  0  0  0  0  0  0
   -8.2181   -2.5495   -0.6759 H   0  0  0  0  0  0  0  0  0  0  0  0
   -9.4243   -0.3907   -0.4835 H   0  0  0  0  0  0  0  0  0  0  0  0
  1 24  2  0  0  0  0
  2  6  1  0  0  0  0
  3  6  2  0  0  0  0
  4  7  1  0  0  0  0
  4  8  1  0  0  0  0
  4 10  1  0  0  0  0
  5 23  1  0  0  0  0
  5 24  1  0  0  0  0
  5 49  1  0  0  0  0
  6 26  1  0  0  0  0
  7  9  1  0  0  0  0
  7 31  1  0  0  0  0
  7 32  1  0  0  0  0
  8 11  1  0  0  0  0
  8 33  1  0  0  0  0
  8 34  1  0  0  0  0
  9 12  1  0  0  0  0
  9 35  1  0  0  0  0
  9 36  1  0  0  0  0
 10 13  1  0  0  0  0
 10 37  1  0  0  0  0
 10 38  1  0  0  0  0
 11 12  1  0  0  0  0
 11 14  2  0  0  0  0
 12 15  2  0  0  0  0
 13 16  1  0  0  0  0
 13 39  1  0  0  0  0
 13 40  1  0  0  0  0
 14 17  1  0  0  0  0
 14 41  1  0  0  0  0
 15 18  1  0  0  0  0
 15 42  1  0  0  0  0
 16 19  2  0  0  0  0
 16 20  1  0  0  0  0
 17 18  2  0  0  0  0
 17 43  1  0  0  0  0
 18 44  1  0  0  0  0
 19 21  1  0  0  0  0
 19 45  1  0  0  0  0
 20 22  2  0  0  0  0
 20 46  1  0  0  0  0
 21 23  2  0  0  0  0
 21 47  1  0  0  0  0
 22 23  1  0  0  0  0
 22 48  1  0  0  0  0
 24 25  1  0  0  0  0
 25 26  1  0  0  0  0
 25 27  2  0  0  0  0
 26 28  2  0  0  0  0
 27 29  1  0  0  0  0
 27 50  1  0  0  0  0
 28 30  1  0  0  0  0
 28 51  1  0  0  0  0
 29 30  2  0  0  0  0
 29 52  1  0  0  0  0
 30 53  1  0  0  0  0
M  CHG  2   2  -1   6   1
M  END
> <PUBCHEM_COMPOUND_CID>
20646970

> <PUBCHEM_CONFORMER_RMSD>
1

> <PUBCHEM_CONFORMER_DIVERSEORDER>
2
55
27
45
47
54
26
46
18
49
15
23
35
57
9
37
19
17
6
21
58
56
10
14
7
25
53
13
52
5
12
22
20
33
39
3
38
44
16
11
30
36
50
29
43
4
41
48
34
1
24
8
31
28
40
32
42
51

> <PUBCHEM_MMFF94_PARTIAL_CHARGES>
43
1 -0.57
10 0.27
11 -0.14
12 -0.14
13 0.14
14 -0.15
15 -0.15
16 -0.14
17 -0.15
18 -0.15
19 -0.15
2 -0.52
20 -0.15
21 -0.15
22 -0.15
23 0.12
24 0.54
25 0.09
26 0.13
27 -0.15
28 -0.15
29 -0.15
3 -0.52
30 -0.15
4 -0.81
41 0.15
42 0.15
43 0.15
44 0.15
45 0.15
46 0.15
47 0.15
48 0.15
49 0.37
5 -0.55
50 0.15
51 0.15
52 0.15
53 0.15
6 0.91
7 0.27
8 0.41
9 0.14

> <PUBCHEM_EFFECTIVE_ROTOR_COUNT>
7.8

> <PUBCHEM_PHARMACOPHORE_FEATURES>
10
1 1 acceptor
1 2 acceptor
1 2 anion
1 3 acceptor
1 4 cation
1 5 donor
6 11 12 14 15 17 18 rings
6 16 19 20 21 22 23 rings
6 25 26 27 28 29 30 rings
6 4 7 8 9 11 12 rings

> <PUBCHEM_HEAVY_ATOM_COUNT>
30

> <PUBCHEM_ATOM_DEF_STEREO_COUNT>
0

> <PUBCHEM_ATOM_UDEF_STEREO_COUNT>
0

> <PUBCHEM_BOND_DEF_STEREO_COUNT>
0

> <PUBCHEM_BOND_UDEF_STEREO_COUNT>
0

> <PUBCHEM_ISOTOPIC_ATOM_COUNT>
0

> <PUBCHEM_COMPONENT_COUNT>
1

> <PUBCHEM_CACTVS_TAUTO_COUNT>
2

> <PUBCHEM_CONFORMER_ID>
013B0C3A00000002

> <PUBCHEM_MMFF94_ENERGY>
99.6201

> <PUBCHEM_FEATURE_SELFOVERLAP>
50.852

> <PUBCHEM_SHAPE_FINGERPRINT>
10 15 17775565334118166847
10299344 5 18333167276262192026
10533779 47 17895484639105923794
11135609 127 12391215155451644994
11315181 36 18187367653879493675
12013929 2 17894906309016825223
12522641 24 18114176463480078856
12664476 115 17917990577860870929
13150687 139 13686305695109415284
13422730 43 18130785677032815775
13673619 4 16008744715288348444
13685833 64 17385720293210196646
13914758 101 18410859841453765928
14118638 360 15984834696222481274
14150022 121 18410855417722756517
14251764 18 18333733528923982380
14251764 46 18342457053672790094
14347424 109 18261109699836929224
15131766 46 17907014333469612228
15183329 4 14620798184775498334
15301273 46 16660360385500119638
15328684 2 18263635178333347376
15419008 145 18339356371333571344
15461852 350 18201723989608446527
16989713 51 17059485387749453927
19301679 30 18270399366364055894
20105231 36 14706928436453037744
20554085 129 16630521831031444230
20580484 106 18343013390610686210
21130935 74 18040720320305122874
21150785 3 10231755591655607998
21315763 28 18410856589936747181
21792934 111 16805318911726369116
21792938 703 12966827071444896581
21792961 116 13840255983676030535
22224240 67 17967249818811707706
23569917 315 17240775029458740355
246663 6 15574713586797892822
249057 25 18262531372112918397
249057 3 15697995271389487282
439807 62 16371000794734518306
5470011 282 11891335336203221242
5937810 71 13038641617631603411
6201320 215 18059010566867608881
6394761 36 17385161753407538082
9663363 56 18131632310636791879
99344 41 18410573981152727522
9962374 69 15936695972983299230

> <PUBCHEM_SHAPE_MULTIPOLES>
584.83
32.35
1.84
1.25
16.21
0.94
-0.28
-0.01
8.02
-0.89
0.44
-0.15
-0.06
-2.57

> <PUBCHEM_SHAPE_SELFOVERLAP>
1275.428

> <PUBCHEM_SHAPE_VOLUME>
316.4

> <PUBCHEM_COORDINATE_TYPE>
2
5
10

$$$$