24
 OpenBabel03292021433D

196196  0  0  1  0  0  0  0  0999 V2000
    3.3801   -6.0541    1.5856 C   0  0  0  0  0  0  0  0  0  0  0  0
    4.9633   -5.9684    1.6951 C   0  0  0  0  0  0  0  0  0  0  0  0
    5.8317   -5.0266    1.1939 C   0  0  0  0  0  0  0  0  0  0  0  0
    7.5479   -4.7415    0.9333 C   0  0  0  0  0  0  0  0  0  0  0  0
    9.1744   -4.4950    1.8472 C   0  0  1  0  0  0  0  0  0  0  0  0
    8.3977   -4.3004    3.2554 C   0  0  0  0  0  0  0  0  0  0  0  0
   11.0288   -5.0395    1.3807 C   0  0  1  0  0  0  0  0  0  0  0  0
   10.8545   -6.4461    1.1310 O   0  0  0  0  0  0  0  0  0  0  0  0
   12.8658   -4.8435    2.1242 C   0  0  1  0  0  0  0  0  0  0  0  0
   14.8560   -4.3954    2.0425 C   0  0  0  0  0  0  0  0  0  0  0  0
   15.0497   -3.1657    2.2287 O   0  0  0  0  0  0  0  0  0  0  0  0
   16.4397   -5.1103    2.3269 N   0  0  0  0  0  0  0  0  0  0  0  0
   18.3631   -5.0362    2.2871 C   0  0  1  0  0  0  0  0  0  0  0  0
   19.7159   -5.8868    1.3198 C   0  0  0  0  0  0  0  0  0  0  0  0
   21.4430   -5.6832    1.5029 C   0  0  0  0  0  0  0  0  0  0  0  0
   19.6202   -4.4567    3.4406 C   0  0  0  0  0  0  0  0  0  0  0  0
   19.9164   -3.2558    3.2636 O   0  0  0  0  0  0  0  0  0  0  0  0
   20.5295   -5.2526    4.2909 N   0  0  0  0  0  0  0  0  0  0  0  0
   20.6215   -6.7184    4.3052 C   0  0  0  0  0  0  0  0  0  0  0  0
   21.2662   -4.6336    5.5213 C   0  0  0  0  0  0  0  0  0  0  0  0
   22.3759   -3.5262    6.1128 C   0  0  0  0  0  0  0  0  0  0  0  0
   22.6179   -3.5475    7.2560 O   0  0  0  0  0  0  0  0  0  0  0  0
   22.8735   -2.5748    5.2277 N   0  0  0  0  0  0  0  0  0  0  0  0
   23.1619   -2.8949    3.8380 C   0  0  0  0  0  0  0  0  0  0  0  0
   23.0957   -1.1728    5.6410 C   0  0  1  0  0  0  0  0  0  0  0  0
   21.9432   -0.5775    6.4502 C   0  0  0  0  0  0  0  0  0  0  0  0
   20.4484   -0.6226    6.1372 C   0  0  0  0  0  0  0  0  0  0  0  0
   19.9441   -2.0222    6.0016 C   0  0  0  0  0  0  0  0  0  0  0  0
   19.6520   -0.0410    7.3104 C   0  0  0  0  0  0  0  0  0  0  0  0
   24.5528   -0.8466    6.1911 C   0  0  0  0  0  0  0  0  0  0  0  0
   25.5464   -1.2700    5.5625 O   0  0  0  0  0  0  0  0  0  0  0  0
   24.8511    0.0189    7.2312 N   0  0  0  0  0  0  0  0  0  0  0  0
   24.0004    0.4531    8.3728 C   0  0  1  0  0  0  0  0  0  0  0  0
   24.6912    0.5089    9.7374 C   0  0  0  0  0  0  0  0  0  0  0  0
   23.6446    0.9520   10.7830 C   0  0  0  0  0  0  0  0  0  0  0  0
   25.2461   -0.8459   10.1759 C   0  0  0  0  0  0  0  0  0  0  0  0
   23.1638    1.7445    8.1088 C   0  0  0  0  0  0  0  0  0  0  0  0
   21.9338    1.6843    8.2293 O   0  0  0  0  0  0  0  0  0  0  0  0
   23.7659    2.9708    7.8195 N   0  0  0  0  0  0  0  0  0  0  0  0
   24.4989    3.6185    8.9029 C   0  0  0  0  0  0  0  0  0  0  0  0
   22.8724    3.8982    7.0704 C   0  0  1  0  0  0  0  0  0  0  0  0
   22.4790    3.2763    5.7157 C   0  0  0  0  0  0  0  0  0  0  0  0
   23.5658    2.8409    4.7311 C   0  0  0  0  0  0  0  0  0  0  0  0
   22.8600    2.3270    3.4632 C   0  0  0  0  0  0  0  0  0  0  0  0
   24.4789    4.0103    4.3857 C   0  0  0  0  0  0  0  0  0  0  0  0
   21.7330    4.4970    8.0058 C   0  0  0  0  0  0  0  0  0  0  0  0
   22.0131    4.9866    9.1109 O   0  0  0  0  0  0  0  0  0  0  0  0
   20.4184    4.5717    7.6831 N   0  0  0  0  0  0  0  0  0  0  0  0
   19.7352    4.2204    6.4537 C   0  0  1  0  0  0  0  0  0  0  0  0
   18.3125    3.8242    6.7568 C   0  0  0  0  0  0  0  0  0  0  0  0
   20.0408    5.3327    5.3972 C   0  0  0  0  0  0  0  0  0  0  0  0
   20.9866    6.1150    5.5142 O   0  0  0  0  0  0  0  0  0  0  0  0
   19.4043    5.3448    4.1830 N   0  0  0  0  0  0  0  0  0  0  0  0
   17.9954    5.7351    4.0783 C   0  0  2  0  0  0  0  0  0  0  0  0
   17.5769    6.7027    5.1954 C   0  0  0  0  0  0  0  0  0  0  0  0
   17.0338    4.5258    3.8674 C   0  0  0  0  0  0  0  0  0  0  0  0
   16.2351    4.2032    4.7424 O   0  0  0  0  0  0  0  0  0  0  0  0
   17.1477    3.8428    2.6433 N   0  0  0  0  0  0  0  0  0  0  0  0
   16.7866    4.6276    1.4698 C   0  0  0  0  0  0  0  0  0  0  0  0
   16.7388    2.4096    2.5326 C   0  0  1  0  0  0  0  0  0  0  0  0
   17.5640    1.4272    3.3566 C   0  0  0  0  0  0  0  0  0  0  0  0
   17.0576   -0.0299    3.2383 C   0  0  0  0  0  0  0  0  0  0  0  0
   17.3587   -0.6870    1.9005 C   0  0  0  0  0  0  0  0  0  0  0  0
   17.6908   -0.8345    4.3356 C   0  0  0  0  0  0  0  0  0  0  0  0
   15.2094    2.1871    2.5328 C   0  0  0  0  0  0  0  0  0  0  0  0
   14.6465    2.0209    1.4443 O   0  0  0  0  0  0  0  0  0  0  0  0
   14.4984    2.3205    3.7094 N   0  0  0  0  0  0  0  0  0  0  0  0
   14.9100    1.6324    4.9516 C   0  0  0  0  0  0  0  0  0  0  0  0
   13.0542    2.4950    3.6200 C   0  0  1  0  0  0  0  0  0  0  0  0
   12.4275    3.4428    2.6346 C   0  0  0  0  0  0  0  0  0  0  0  0
   10.8859    3.4528    2.8185 C   0  0  0  0  0  0  0  0  0  0  0  0
   10.4330    3.9529    4.1910 C   0  0  0  0  0  0  0  0  0  0  0  0
   10.2845    4.2295    1.6630 C   0  0  0  0  0  0  0  0  0  0  0  0
   12.3825    1.1477    3.7745 C   0  0  0  0  0  0  0  0  0  0  0  0
   12.2024    0.8969    4.9725 O   0  0  0  0  0  0  0  0  0  0  0  0
   12.2305    0.2134    2.7513 N   0  0  0  0  0  0  0  0  0  0  0  0
   11.5684    0.5161    1.4711 C   0  0  0  0  0  0  0  0  0  0  0  0
   12.5793   -1.2075    3.0689 C   0  0  1  0  0  0  0  0  0  0  0  0
   12.4127   -1.5533    4.5751 C   0  0  0  0  0  0  0  0  0  0  0  0
   13.6351   -1.4680    5.4779 C   0  0  0  0  0  0  0  0  0  0  0  0
   10.9640   -1.3156    5.0680 C   0  0  0  0  0  0  0  0  0  0  0  0
   11.9654   -2.4646    2.3052 C   0  0  0  0  0  0  0  0  0  0  0  0
   11.2783   -2.3450    1.3032 O   0  0  0  0  0  0  0  0  0  0  0  0
   12.3349   -3.7160    2.9891 N   0  0  0  0  0  0  0  0  0  0  0  0
   11.3189   -4.2168    3.9398 C   0  0  0  0  0  0  0  0  0  0  0  0
    3.0141   -6.9904    2.0511 H   0  0  0  0  0  0  0  0  0  0  0  0
    3.0078   -6.1222    0.5509 H   0  0  0  0  0  0  0  0  0  0  0  0
    2.8112   -5.2622    2.0962 H   0  0  0  0  0  0  0  0  0  0  0  0
    5.3330   -6.8569    2.1943 H   0  0  0  0  0  0  0  0  0  0  0  0
    5.2606   -4.2063    0.7221 H   0  0  0  0  0  0  0  0  0  0  0  0
    7.3276   -3.6437    0.9216 H   0  0  0  0  0  0  0  0  0  0  0  0
    7.7385   -4.9193   -0.1256 H   0  0  0  0  0  0  0  0  0  0  0  0
    9.2922   -3.4490    1.5593 H   0  0  0  0  0  0  0  0  0  0  0  0
    8.0677   -5.2302    3.7243 H   0  0  0  0  0  0  0  0  0  0  0  0
    7.4412   -3.7586    3.0647 H   0  0  0  0  0  0  0  0  0  0  0  0
    8.7815   -3.6035    3.9974 H   0  0  0  0  0  0  0  0  0  0  0  0
   11.1145   -4.5296    0.4116 H   0  0  0  0  0  0  0  0  0  0  0  0
    9.9153   -6.5618    0.8887 H   0  0  0  0  0  0  0  0  0  0  0  0
   12.9200   -5.7116    2.8018 H   0  0  0  0  0  0  0  0  0  0  0  0
   16.5655   -4.3122    2.9492 H   0  0  0  0  0  0  0  0  0  0  0  0
   18.3717   -4.1385    1.6454 H   0  0  0  0  0  0  0  0  0  0  0  0
   19.6213   -5.5501    0.2845 H   0  0  0  0  0  0  0  0  0  0  0  0
   19.6009   -6.9701    1.3944 H   0  0  0  0  0  0  0  0  0  0  0  0
   21.8205   -4.6905    1.7930 H   0  0  0  0  0  0  0  0  0  0  0  0
   21.9788   -5.9237    0.5616 H   0  0  0  0  0  0  0  0  0  0  0  0
   21.9518   -6.4068    2.1591 H   0  0  0  0  0  0  0  0  0  0  0  0
   21.5740   -7.0122    3.8310 H   0  0  0  0  0  0  0  0  0  0  0  0
   19.7394   -7.1514    3.8186 H   0  0  0  0  0  0  0  0  0  0  0  0
   20.7600   -7.0854    5.3370 H   0  0  0  0  0  0  0  0  0  0  0  0
   21.6930   -5.5009    6.0475 H   0  0  0  0  0  0  0  0  0  0  0  0
   20.3892   -4.4020    6.1275 H   0  0  0  0  0  0  0  0  0  0  0  0
   22.2077   -2.9295    3.3324 H   0  0  0  0  0  0  0  0  0  0  0  0
   23.6657   -3.8611    3.7767 H   0  0  0  0  0  0  0  0  0  0  0  0
   23.7838   -2.1236    3.3745 H   0  0  0  0  0  0  0  0  0  0  0  0
   23.0769   -0.5970    4.7038 H   0  0  0  0  0  0  0  0  0  0  0  0
   22.1619    0.4793    6.4045 H   0  0  0  0  0  0  0  0  0  0  0  0
   22.0128   -0.9673    7.4586 H   0  0  0  0  0  0  0  0  0  0  0  0
   20.2658   -0.0360    5.2321 H   0  0  0  0  0  0  0  0  0  0  0  0
   20.2278   -2.5994    6.8778 H   0  0  0  0  0  0  0  0  0  0  0  0
   20.3649   -2.4040    5.0866 H   0  0  0  0  0  0  0  0  0  0  0  0
   18.8667   -2.1454    5.9362 H   0  0  0  0  0  0  0  0  0  0  0  0
   20.0706   -0.3747    8.2675 H   0  0  0  0  0  0  0  0  0  0  0  0
   18.6096   -0.3764    7.2990 H   0  0  0  0  0  0  0  0  0  0  0  0
   19.6549    1.0467    7.2803 H   0  0  0  0  0  0  0  0  0  0  0  0
   25.8456    0.1062    7.3588 H   0  0  0  0  0  0  0  0  0  0  0  0
   23.3195   -0.3670    8.4942 H   0  0  0  0  0  0  0  0  0  0  0  0
   25.5429    1.1877    9.7135 H   0  0  0  0  0  0  0  0  0  0  0  0
   22.9159    0.1518   10.9584 H   0  0  0  0  0  0  0  0  0  0  0  0
   23.0577    1.8229   10.4799 H   0  0  0  0  0  0  0  0  0  0  0  0
   24.1193    1.2218   11.7261 H   0  0  0  0  0  0  0  0  0  0  0  0
   24.4454   -1.5829   10.2982 H   0  0  0  0  0  0  0  0  0  0  0  0
   25.7522   -0.7341   11.1405 H   0  0  0  0  0  0  0  0  0  0  0  0
   25.9701   -1.2383    9.4572 H   0  0  0  0  0  0  0  0  0  0  0  0
   25.3215    3.0070    9.2505 H   0  0  0  0  0  0  0  0  0  0  0  0
   23.8369    3.7821    9.7589 H   0  0  0  0  0  0  0  0  0  0  0  0
   24.9149    4.5703    8.5671 H   0  0  0  0  0  0  0  0  0  0  0  0
   23.4779    4.7832    6.8341 H   0  0  0  0  0  0  0  0  0  0  0  0
   21.9094    4.0020    5.1509 H   0  0  0  0  0  0  0  0  0  0  0  0
   21.8296    2.4154    5.8729 H   0  0  0  0  0  0  0  0  0  0  0  0
   24.1553    2.0235    5.1562 H   0  0  0  0  0  0  0  0  0  0  0  0
   22.2738    3.1226    2.9860 H   0  0  0  0  0  0  0  0  0  0  0  0
   22.1646    1.5132    3.7011 H   0  0  0  0  0  0  0  0  0  0  0  0
   23.5804    1.9525    2.7315 H   0  0  0  0  0  0  0  0  0  0  0  0
   23.8956    4.8779    4.0553 H   0  0  0  0  0  0  0  0  0  0  0  0
   25.1735    3.7421    3.5856 H   0  0  0  0  0  0  0  0  0  0  0  0
   25.0679    4.3126    5.2565 H   0  0  0  0  0  0  0  0  0  0  0  0
   19.8850    5.0607    8.3950 H   0  0  0  0  0  0  0  0  0  0  0  0
   20.1626    3.2990    6.0808 H   0  0  0  0  0  0  0  0  0  0  0  0
   17.6678    4.6592    7.0280 H   0  0  0  0  0  0  0  0  0  0  0  0
   18.2680    3.0995    7.5757 H   0  0  0  0  0  0  0  0  0  0  0  0
   17.9170    3.3027    5.8926 H   0  0  0  0  0  0  0  0  0  0  0  0
   19.9717    5.9244    3.5722 H   0  0  0  0  0  0  0  0  0  0  0  0
   17.9508    6.3330    3.1665 H   0  0  0  0  0  0  0  0  0  0  0  0
   18.0689    6.5173    6.1542 H   0  0  0  0  0  0  0  0  0  0  0  0
   16.5007    6.6875    5.3752 H   0  0  0  0  0  0  0  0  0  0  0  0
   17.8732    7.7217    4.9240 H   0  0  0  0  0  0  0  0  0  0  0  0
   17.2160    5.6278    1.4945 H   0  0  0  0  0  0  0  0  0  0  0  0
   15.6965    4.7368    1.4453 H   0  0  0  0  0  0  0  0  0  0  0  0
   17.1330    4.1277    0.5621 H   0  0  0  0  0  0  0  0  0  0  0  0
   17.0284    2.1452    1.5037 H   0  0  0  0  0  0  0  0  0  0  0  0
   17.6099    1.7425    4.3996 H   0  0  0  0  0  0  0  0  0  0  0  0
   18.6141    1.4785    3.0405 H   0  0  0  0  0  0  0  0  0  0  0  0
   15.9820   -0.1084    3.3780 H   0  0  0  0  0  0  0  0  0  0  0  0
   18.4273   -0.6627    1.6726 H   0  0  0  0  0  0  0  0  0  0  0  0
   16.8028   -0.2037    1.0948 H   0  0  0  0  0  0  0  0  0  0  0  0
   17.0550   -1.7382    1.9264 H   0  0  0  0  0  0  0  0  0  0  0  0
   18.7615   -0.8352    4.1442 H   0  0  0  0  0  0  0  0  0  0  0  0
   17.3432   -1.8711    4.3476 H   0  0  0  0  0  0  0  0  0  0  0  0
   17.4858   -0.3958    5.3181 H   0  0  0  0  0  0  0  0  0  0  0  0
   15.9405    1.7608    5.2448 H   0  0  0  0  0  0  0  0  0  0  0  0
   14.7650    0.5718    4.7806 H   0  0  0  0  0  0  0  0  0  0  0  0
   14.2975    1.9259    5.8095 H   0  0  0  0  0  0  0  0  0  0  0  0
   12.8586    3.0010    4.5794 H   0  0  0  0  0  0  0  0  0  0  0  0
   12.6857    3.1969    1.6125 H   0  0  0  0  0  0  0  0  0  0  0  0
   12.8334    4.4507    2.8053 H   0  0  0  0  0  0  0  0  0  0  0  0
   10.4788    2.4407    2.7455 H   0  0  0  0  0  0  0  0  0  0  0  0
   10.8474    4.9368    4.4185 H   0  0  0  0  0  0  0  0  0  0  0  0
   10.7406    3.2638    4.9884 H   0  0  0  0  0  0  0  0  0  0  0  0
    9.3413    4.0006    4.2424 H   0  0  0  0  0  0  0  0  0  0  0  0
   10.7241    5.2270    1.5969 H   0  0  0  0  0  0  0  0  0  0  0  0
    9.2011    4.3106    1.7648 H   0  0  0  0  0  0  0  0  0  0  0  0
   10.4944    3.7022    0.7237 H   0  0  0  0  0  0  0  0  0  0  0  0
   11.7355    1.5323    1.1215 H   0  0  0  0  0  0  0  0  0  0  0  0
   10.4852    0.4103    1.6174 H   0  0  0  0  0  0  0  0  0  0  0  0
   11.8954   -0.1370    0.6612 H   0  0  0  0  0  0  0  0  0  0  0  0
   13.6241   -1.2555    2.7392 H   0  0  0  0  0  0  0  0  0  0  0  0
   12.4719   -2.6082    4.6276 H   0  0  0  0  0  0  0  0  0  0  0  0
   13.6485   -0.6085    6.1419 H   0  0  0  0  0  0  0  0  0  0  0  0
   14.5581   -1.5354    4.8863 H   0  0  0  0  0  0  0  0  0  0  0  0
   13.6641   -2.3560    6.1268 H   0  0  0  0  0  0  0  0  0  0  0  0
   10.6293   -0.2981    5.2532 H   0  0  0  0  0  0  0  0  0  0  0  0
   10.7827   -1.8812    5.9810 H   0  0  0  0  0  0  0  0  0  0  0  0
   10.2477   -1.6229    4.2978 H   0  0  0  0  0  0  0  0  0  0  0  0
   11.7281   -4.3151    4.9378 H   0  0  0  0  0  0  0  0  0  0  0  0
   10.8563   -5.1678    3.6907 H   0  0  0  0  0  0  0  0  0  0  0  0
   10.5411   -3.4695    3.9784 H   0  0  0  0  0  0  0  0  0  0  0  0
  1  2  1  0  0  0  0
  1 86  1  0  0  0  0
  1 87  1  0  0  0  0
  1 88  1  0  0  0  0
  2  3  2  0  0  0  0
  2 89  1  0  0  0  0
  3  4  1  0  0  0  0
  3 90  1  0  0  0  0
  4  5  1  0  0  0  0
  4 91  1  0  0  0  0
  4 92  1  0  0  0  0
  5  6  1  0  0  0  0
  5  7  1  0  0  0  0
  5 93  1  6  0  0  0
  6 94  1  0  0  0  0
  6 95  1  0  0  0  0
  6 96  1  0  0  0  0
  7  8  1  0  0  0  0
  7  9  1  0  0  0  0
  7 97  1  1  0  0  0
  8 98  1  0  0  0  0
  9 10  1  0  0  0  0
  9 84  1  0  0  0  0
  9 99  1  1  0  0  0
 10 11  2  0  0  0  0
 10 12  1  0  0  0  0
 12 13  1  0  0  0  0
 12100  1  0  0  0  0
 13 14  1  0  0  0  0
 13 16  1  0  0  0  0
 13101  1  1  0  0  0
 14 15  1  0  0  0  0
 14102  1  0  0  0  0
 14103  1  0  0  0  0
 15104  1  0  0  0  0
 15105  1  0  0  0  0
 15106  1  0  0  0  0
 16 17  2  0  0  0  0
 16 18  1  0  0  0  0
 18 19  1  0  0  0  0
 18 20  1  0  0  0  0
 19107  1  0  0  0  0
 19108  1  0  0  0  0
 19109  1  0  0  0  0
 20 21  1  0  0  0  0
 20110  1  0  0  0  0
 20111  1  0  0  0  0
 21 22  2  0  0  0  0
 21 23  1  0  0  0  0
 23 24  1  0  0  0  0
 23 25  1  0  0  0  0
 24112  1  0  0  0  0
 24113  1  0  0  0  0
 24114  1  0  0  0  0
 25 26  1  0  0  0  0
 25 30  1  0  0  0  0
 25115  1  6  0  0  0
 26 27  1  0  0  0  0
 26116  1  0  0  0  0
 26117  1  0  0  0  0
 27 28  1  0  0  0  0
 27 29  1  0  0  0  0
 27118  1  0  0  0  0
 28119  1  0  0  0  0
 28120  1  0  0  0  0
 28121  1  0  0  0  0
 29122  1  0  0  0  0
 29123  1  0  0  0  0
 29124  1  0  0  0  0
 30 31  2  0  0  0  0
 30 32  1  0  0  0  0
 32 33  1  0  0  0  0
 32125  1  0  0  0  0
 33 34  1  0  0  0  0
 33 37  1  0  0  0  0
 33126  1  1  0  0  0
 34 35  1  0  0  0  0
 34 36  1  0  0  0  0
 34127  1  0  0  0  0
 35128  1  0  0  0  0
 35129  1  0  0  0  0
 35130  1  0  0  0  0
 36131  1  0  0  0  0
 36132  1  0  0  0  0
 36133  1  0  0  0  0
 37 38  2  0  0  0  0
 37 39  1  0  0  0  0
 39 40  1  0  0  0  0
 39 41  1  0  0  0  0
 40134  1  0  0  0  0
 40135  1  0  0  0  0
 40136  1  0  0  0  0
 41 42  1  0  0  0  0
 41 46  1  0  0  0  0
 41137  1  6  0  0  0
 42 43  1  0  0  0  0
 42138  1  0  0  0  0
 42139  1  0  0  0  0
 43 44  1  0  0  0  0
 43 45  1  0  0  0  0
 43140  1  0  0  0  0
 44141  1  0  0  0  0
 44142  1  0  0  0  0
 44143  1  0  0  0  0
 45144  1  0  0  0  0
 45145  1  0  0  0  0
 45146  1  0  0  0  0
 46 47  2  0  0  0  0
 46 48  1  0  0  0  0
 48 49  1  0  0  0  0
 48147  1  0  0  0  0
 49 50  1  0  0  0  0
 49 51  1  0  0  0  0
 49148  1  6  0  0  0
 50149  1  0  0  0  0
 50150  1  0  0  0  0
 50151  1  0  0  0  0
 51 52  2  0  0  0  0
 51 53  1  0  0  0  0
 53 54  1  0  0  0  0
 53152  1  0  0  0  0
 54 56  1  0  0  0  0
 54 55  1  0  0  0  0
 54153  1  6  0  0  0
 55154  1  0  0  0  0
 55155  1  0  0  0  0
 55156  1  0  0  0  0
 56 57  2  0  0  0  0
 56 58  1  0  0  0  0
 58 59  1  0  0  0  0
 58 60  1  0  0  0  0
 59157  1  0  0  0  0
 59158  1  0  0  0  0
 59159  1  0  0  0  0
 60 61  1  0  0  0  0
 60 65  1  0  0  0  0
 60160  1  6  0  0  0
 61 62  1  0  0  0  0
 61161  1  0  0  0  0
 61162  1  0  0  0  0
 62 63  1  0  0  0  0
 62 64  1  0  0  0  0
 62163  1  0  0  0  0
 63164  1  0  0  0  0
 63165  1  0  0  0  0
 63166  1  0  0  0  0
 64167  1  0  0  0  0
 64168  1  0  0  0  0
 64169  1  0  0  0  0
 65 66  2  0  0  0  0
 65 67  1  0  0  0  0
 67 68  1  0  0  0  0
 67 69  1  0  0  0  0
 68170  1  0  0  0  0
 68171  1  0  0  0  0
 68172  1  0  0  0  0
 69 70  1  0  0  0  0
 69 74  1  0  0  0  0
 69173  1  1  0  0  0
 70 71  1  0  0  0  0
 70174  1  0  0  0  0
 70175  1  0  0  0  0
 71 72  1  0  0  0  0
 71 73  1  0  0  0  0
 71176  1  0  0  0  0
 72177  1  0  0  0  0
 72178  1  0  0  0  0
 72179  1  0  0  0  0
 73180  1  0  0  0  0
 73181  1  0  0  0  0
 73182  1  0  0  0  0
 74 75  2  0  0  0  0
 74 76  1  0  0  0  0
 76 77  1  0  0  0  0
 76 78  1  0  0  0  0
 77183  1  0  0  0  0
 77184  1  0  0  0  0
 77185  1  0  0  0  0
 78 79  1  0  0  0  0
 78 82  1  0  0  0  0
 78186  1  6  0  0  0
 79 80  1  0  0  0  0
 79 81  1  0  0  0  0
 79187  1  0  0  0  0
 80188  1  0  0  0  0
 80189  1  0  0  0  0
 80190  1  0  0  0  0
 81191  1  0  0  0  0
 81192  1  0  0  0  0
 81193  1  0  0  0  0
 82 83  2  0  0  0  0
 82 84  1  0  0  0  0
 84 85  1  0  0  0  0
 85194  1  0  0  0  0
 85195  1  0  0  0  0
 85196  1  0  0  0  0
M  END
>  <Energy>
1227.66

$$$$