25223002
  -OEChem-03242010093D

 82 87  0     1  0  0  0  0  0999 V2000
   11.4386    0.2969   -2.0582 O   0  0  0  0  0  0  0  0  0  0  0  0
   12.5004   -1.4149   -0.1452 O   0  0  0  0  0  0  0  0  0  0  0  0
   -1.0029    3.7611   -0.6551 O   0  0  0  0  0  0  0  0  0  0  0  0
   -7.1705    3.8540    0.6278 O   0  0  0  0  0  0  0  0  0  0  0  0
   -4.8987   -0.6357   -0.1726 O   0  0  0  0  0  0  0  0  0  0  0  0
    6.1941   -0.8419    0.8824 N   0  0  2  0  0  0  0  0  0  0  0  0
   -1.2351    1.5792    0.1895 N   0  0  0  0  0  0  0  0  0  0  0  0
   -6.2909    1.2260    0.1767 N   0  0  0  0  0  0  0  0  0  0  0  0
   -9.4127   -1.4945    0.8366 N   0  0  0  0  0  0  0  0  0  0  0  0
    6.8109   -1.0340    2.2008 C   0  0  0  0  0  0  0  0  0  0  0  0
    7.0234    0.0553    0.0583 C   0  0  0  0  0  0  0  0  0  0  0  0
    8.1367   -1.7869    2.0507 C   0  0  0  0  0  0  0  0  0  0  0  0
    8.4741   -0.3641   -0.0082 C   0  0  0  0  0  0  0  0  0  0  0  0
    9.0178   -1.2111    0.9728 C   0  0  0  0  0  0  0  0  0  0  0  0
    4.8406   -0.3042    1.0160 C   0  0  0  0  0  0  0  0  0  0  0  0
    4.0200   -0.5661   -0.2474 C   0  0  0  0  0  0  0  0  0  0  0  0
    9.3030    0.1452   -1.0169 C   0  0  0  0  0  0  0  0  0  0  0  0
   10.3716   -1.5656    0.9097 C   0  0  0  0  0  0  0  0  0  0  0  0
   10.6521   -0.2056   -1.0657 C   0  0  0  0  0  0  0  0  0  0  0  0
   11.1852   -1.0617   -0.1048 C   0  0  0  0  0  0  0  0  0  0  0  0
    2.6285    0.0030   -0.1313 C   0  0  0  0  0  0  0  0  0  0  0  0
    1.5972   -0.7784    0.3901 C   0  0  0  0  0  0  0  0  0  0  0  0
    2.3719    1.3100   -0.5458 C   0  0  0  0  0  0  0  0  0  0  0  0
    0.3096   -0.2529    0.4970 C   0  0  0  0  0  0  0  0  0  0  0  0
    1.0843    1.8354   -0.4389 C   0  0  0  0  0  0  0  0  0  0  0  0
    0.0531    1.0540    0.0824 C   0  0  0  0  0  0  0  0  0  0  0  0
   10.8152    1.1660   -3.0016 C   0  0  0  0  0  0  0  0  0  0  0  0
   12.9665   -2.2952    0.8756 C   0  0  0  0  0  0  0  0  0  0  0  0
   -1.6778    2.8584   -0.1720 C   0  0  0  0  0  0  0  0  0  0  0  0
   -3.1270    3.1141    0.0387 C   0  0  0  0  0  0  0  0  0  0  0  0
   -4.0345    2.0553    0.0103 C   0  0  0  0  0  0  0  0  0  0  0  0
   -5.3942    2.2965    0.2072 C   0  0  0  0  0  0  0  0  0  0  0  0
   -3.5791    4.4143    0.2639 C   0  0  0  0  0  0  0  0  0  0  0  0
   -5.8462    3.5967    0.4324 C   0  0  0  0  0  0  0  0  0  0  0  0
   -4.9388    4.6557    0.4608 C   0  0  0  0  0  0  0  0  0  0  0  0
   -7.1794   -1.0418    0.0397 C   0  0  0  0  0  0  0  0  0  0  0  0
   -6.0043   -0.1324   -0.0049 C   0  0  0  0  0  0  0  0  0  0  0  0
   -8.2980   -3.0933   -0.5806 C   0  0  0  0  0  0  0  0  0  0  0  0
   -7.1781   -2.2529   -0.6372 C   0  0  0  0  0  0  0  0  0  0  0  0
   -9.4086   -2.6693    0.1786 C   0  0  0  0  0  0  0  0  0  0  0  0
   -8.3121   -0.7124    0.7558 C   0  0  0  0  0  0  0  0  0  0  0  0
   -8.3282   -4.3257   -1.2550 C   0  0  0  0  0  0  0  0  0  0  0  0
  -10.5208   -3.5047    0.2349 C   0  0  0  0  0  0  0  0  0  0  0  0
   -9.4537   -5.1413   -1.1816 C   0  0  0  0  0  0  0  0  0  0  0  0
  -10.5511   -4.7300   -0.4354 C   0  0  0  0  0  0  0  0  0  0  0  0
   -7.9521    4.1397   -0.5301 C   0  0  0  0  0  0  0  0  0  0  0  0
    6.1608   -1.6296    2.8534 H   0  0  0  0  0  0  0  0  0  0  0  0
    6.9745   -0.0685    2.6986 H   0  0  0  0  0  0  0  0  0  0  0  0
    6.6379    0.0661   -0.9671 H   0  0  0  0  0  0  0  0  0  0  0  0
    6.9926    1.0831    0.4444 H   0  0  0  0  0  0  0  0  0  0  0  0
    7.9350   -2.8364    1.8006 H   0  0  0  0  0  0  0  0  0  0  0  0
    8.6632   -1.7671    3.0123 H   0  0  0  0  0  0  0  0  0  0  0  0
    4.3237   -0.8051    1.8463 H   0  0  0  0  0  0  0  0  0  0  0  0
    4.8533    0.7641    1.2708 H   0  0  0  0  0  0  0  0  0  0  0  0
    4.4933   -0.1309   -1.1352 H   0  0  0  0  0  0  0  0  0  0  0  0
    3.9585   -1.6449   -0.4430 H   0  0  0  0  0  0  0  0  0  0  0  0
    8.8344    0.8125   -1.7328 H   0  0  0  0  0  0  0  0  0  0  0  0
   10.7282   -2.2393    1.6820 H   0  0  0  0  0  0  0  0  0  0  0  0
    1.7853   -1.7974    0.7177 H   0  0  0  0  0  0  0  0  0  0  0  0
    3.1685    1.9281   -0.9515 H   0  0  0  0  0  0  0  0  0  0  0  0
   -0.4841   -0.8735    0.9052 H   0  0  0  0  0  0  0  0  0  0  0  0
    0.9662    2.8541   -0.7802 H   0  0  0  0  0  0  0  0  0  0  0  0
   11.5857    1.4683   -3.7186 H   0  0  0  0  0  0  0  0  0  0  0  0
   10.4481    2.0819   -2.5260 H   0  0  0  0  0  0  0  0  0  0  0  0
   10.0359    0.6501   -3.5730 H   0  0  0  0  0  0  0  0  0  0  0  0
   14.0319   -2.4678    0.6898 H   0  0  0  0  0  0  0  0  0  0  0  0
   12.4735   -3.2719    0.8230 H   0  0  0  0  0  0  0  0  0  0  0  0
   12.8878   -1.8401    1.8689 H   0  0  0  0  0  0  0  0  0  0  0  0
   -1.8996    0.9458    0.6249 H   0  0  0  0  0  0  0  0  0  0  0  0
   -3.6572    1.0757   -0.2317 H   0  0  0  0  0  0  0  0  0  0  0  0
   -2.8877    5.2523    0.2950 H   0  0  0  0  0  0  0  0  0  0  0  0
   -5.2836    5.6710    0.6376 H   0  0  0  0  0  0  0  0  0  0  0  0
   -7.2629    1.5003    0.2869 H   0  0  0  0  0  0  0  0  0  0  0  0
   -6.3083   -2.5521   -1.2190 H   0  0  0  0  0  0  0  0  0  0  0  0
   -8.3954    0.1958    1.3433 H   0  0  0  0  0  0  0  0  0  0  0  0
   -7.4744   -4.6574   -1.8417 H   0  0  0  0  0  0  0  0  0  0  0  0
  -11.3934   -3.2054    0.8125 H   0  0  0  0  0  0  0  0  0  0  0  0
   -9.4735   -6.0927   -1.7041 H   0  0  0  0  0  0  0  0  0  0  0  0
  -11.4334   -5.3602   -0.3725 H   0  0  0  0  0  0  0  0  0  0  0  0
   -7.6088    5.0657   -1.0021 H   0  0  0  0  0  0  0  0  0  0  0  0
   -7.9053    3.3142   -1.2474 H   0  0  0  0  0  0  0  0  0  0  0  0
   -8.9915    4.2717   -0.2175 H   0  0  0  0  0  0  0  0  0  0  0  0
  1 19  1  0  0  0  0
  1 27  1  0  0  0  0
  2 20  1  0  0  0  0
  2 28  1  0  0  0  0
  3 29  2  0  0  0  0
  4 34  1  0  0  0  0
  4 46  1  0  0  0  0
  5 37  2  0  0  0  0
  6 10  1  0  0  0  0
  6 11  1  0  0  0  0
  6 15  1  0  0  0  0
  7 26  1  0  0  0  0
  7 29  1  0  0  0  0
  7 69  1  0  0  0  0
  8 32  1  0  0  0  0
  8 37  1  0  0  0  0
  8 73  1  0  0  0  0
  9 40  1  0  0  0  0
  9 41  2  0  0  0  0
 10 12  1  0  0  0  0
 10 47  1  0  0  0  0
 10 48  1  0  0  0  0
 11 13  1  0  0  0  0
 11 49  1  0  0  0  0
 11 50  1  0  0  0  0
 12 14  1  0  0  0  0
 12 51  1  0  0  0  0
 12 52  1  0  0  0  0
 13 14  1  0  0  0  0
 13 17  2  0  0  0  0
 14 18  2  0  0  0  0
 15 16  1  0  0  0  0
 15 53  1  0  0  0  0
 15 54  1  0  0  0  0
 16 21  1  0  0  0  0
 16 55  1  0  0  0  0
 16 56  1  0  0  0  0
 17 19  1  0  0  0  0
 17 57  1  0  0  0  0
 18 20  1  0  0  0  0
 18 58  1  0  0  0  0
 19 20  2  0  0  0  0
 21 22  2  0  0  0  0
 21 23  1  0  0  0  0
 22 24  1  0  0  0  0
 22 59  1  0  0  0  0
 23 25  2  0  0  0  0
 23 60  1  0  0  0  0
 24 26  2  0  0  0  0
 24 61  1  0  0  0  0
 25 26  1  0  0  0  0
 25 62  1  0  0  0  0
 27 63  1  0  0  0  0
 27 64  1  0  0  0  0
 27 65  1  0  0  0  0
 28 66  1  0  0  0  0
 28 67  1  0  0  0  0
 28 68  1  0  0  0  0
 29 30  1  0  0  0  0
 30 31  2  0  0  0  0
 30 33  1  0  0  0  0
 31 32  1  0  0  0  0
 31 70  1  0  0  0  0
 32 34  2  0  0  0  0
 33 35  2  0  0  0  0
 33 71  1  0  0  0  0
 34 35  1  0  0  0  0
 35 72  1  0  0  0  0
 36 37  1  0  0  0  0
 36 39  2  0  0  0  0
 36 41  1  0  0  0  0
 38 39  1  0  0  0  0
 38 40  1  0  0  0  0
 38 42  2  0  0  0  0
 39 74  1  0  0  0  0
 40 43  2  0  0  0  0
 41 75  1  0  0  0  0
 42 44  1  0  0  0  0
 42 76  1  0  0  0  0
 43 45  1  0  0  0  0
 43 77  1  0  0  0  0
 44 45  2  0  0  0  0
 44 78  1  0  0  0  0
 45 79  1  0  0  0  0
 46 80  1  0  0  0  0
 46 81  1  0  0  0  0
 46 82  1  0  0  0  0
M  END
> <PUBCHEM_COMPOUND_CID>
25223002

> <PUBCHEM_CONFORMER_RMSD>
1.2

> <PUBCHEM_CONFORMER_DIVERSEORDER>
8
113
64
37
18
40
78
148
163
164
85
92
65
141
87
24
86
4
56
138
10
109
75
145
15
68
135
83
123
132
146
171
88
126
112
45
28
104
60
61
149
157
71
26
51
133
97
151
140
58
80
31
59
38
105
29
114
125
53
169
81
119
79
73
144
12
74
89
66
137
166
130
102
154
115
42
111
127
100
50
170
32
5
162
13
122
167
44
55
84
99
11
121
57
136
30
124
168
129
48
160
96
116
39
161
95
19
82
7
108
155
54
165
143
52
134
90
131
110
35
150
91
77
36
139
153
21
43
17
76
156
63
147
34
46
118
106
25
20
93
67
41
107
47
103
6
69
1
70
22
120
27
72
128
101
62
159
16
117
49
9
23
33
94
152
14
2
158
98
3
142

> <PUBCHEM_MMFF94_PARTIAL_CHARGES>
62
1 -0.36
10 0.27
11 0.41
12 0.14
13 -0.14
14 -0.14
15 0.27
16 0.14
17 -0.15
18 -0.15
19 0.08
2 -0.36
20 0.08
21 -0.14
22 -0.15
23 -0.15
24 -0.15
25 -0.15
26 0.12
27 0.28
28 0.28
29 0.54
3 -0.57
30 0.09
31 -0.15
32 0.12
33 -0.15
34 0.08
35 -0.15
36 0.09
37 0.54
39 -0.15
4 -0.36
40 0.31
41 0.16
42 -0.15
43 -0.15
44 -0.15
45 -0.15
46 0.28
5 -0.57
57 0.15
58 0.15
59 0.15
6 -0.81
60 0.15
61 0.15
62 0.15
69 0.37
7 -0.55
70 0.15
71 0.15
72 0.15
73 0.37
74 0.15
75 0.15
76 0.15
77 0.15
78 0.15
79 0.15
8 -0.55
9 -0.62

> <PUBCHEM_EFFECTIVE_ROTOR_COUNT>
12.8

> <PUBCHEM_PHARMACOPHORE_FEATURES>
15
1 1 acceptor
1 2 acceptor
1 3 acceptor
1 4 acceptor
1 5 acceptor
1 6 cation
1 7 donor
1 8 donor
1 9 acceptor
6 13 14 17 18 19 20 rings
6 21 22 23 24 25 26 rings
6 30 31 32 33 34 35 rings
6 38 40 42 43 44 45 rings
6 6 10 11 12 13 14 rings
6 9 36 38 39 40 41 rings

> <PUBCHEM_HEAVY_ATOM_COUNT>
46

> <PUBCHEM_ATOM_DEF_STEREO_COUNT>
0

> <PUBCHEM_ATOM_UDEF_STEREO_COUNT>
0

> <PUBCHEM_BOND_DEF_STEREO_COUNT>
0

> <PUBCHEM_BOND_UDEF_STEREO_COUNT>
0

> <PUBCHEM_ISOTOPIC_ATOM_COUNT>
0

> <PUBCHEM_COMPONENT_COUNT>
1

> <PUBCHEM_CACTVS_TAUTO_COUNT>
4

> <PUBCHEM_CONFORMER_ID>
0180DF5A00000008

> <PUBCHEM_MMFF94_ENERGY>
175.9302

> <PUBCHEM_FEATURE_SELFOVERLAP>
76.185

> <PUBCHEM_SHAPE_FINGERPRINT>
10100884 174 18335416920113889987
10533779 47 16343710928743966518
11146346 171 18131071512150573830
12013929 94 18411699898418423794
12089408 11 18113901525359131544
12539745 222 18059858363942433377
13974486 7 18198336459346867751
15145343 36 18411423942448321072
15247644 1 18272090467020110222
15461852 350 18411421687764382328
20105231 36 18342455954884024166
21362267 20 18339638924067797306
23569943 247 18194684990363997915
23729417 116 18334292033772304981
3092352 35 18187365403812957690
4353968 344 18411415121133893831
44280117 145 18411700955154614177
4760202 70 17967254209196146998
5028188 123 18409166576320278808
54039377 194 18335417997976029567
57303763 39 18410573986591802826

> <PUBCHEM_SHAPE_MULTIPOLES>
897.39
55.98
6.4
1.4
101.36
1.52
-0.42
-58.24
-7.65
-30.36
-0.84
4.81
-0.38
-6.25

> <PUBCHEM_SHAPE_SELFOVERLAP>
1967.593

> <PUBCHEM_SHAPE_VOLUME>
483

> <PUBCHEM_COORDINATE_TYPE>
2
5
10

$$$$