27
 OpenBabel03292021433D

190190  0  0  1  0  0  0  0  0999 V2000
    2.7564   -0.0764   -3.6191 C   0  0  0  0  0  0  0  0  0  0  0  0
    3.0359   -0.9722   -2.4503 C   0  0  0  0  0  0  0  0  0  0  0  0
    4.0315   -1.8736   -2.4360 C   0  0  0  0  0  0  0  0  0  0  0  0
    4.4066   -2.7590   -1.2518 C   0  0  0  0  0  0  0  0  0  0  0  0
    5.9551   -2.7493   -0.9431 C   0  0  1  0  0  0  0  0  0  0  0  0
    6.1367   -1.3160   -0.3493 C   0  0  0  0  0  0  0  0  0  0  0  0
    6.6184   -3.8286    0.0578 C   0  0  1  0  0  0  0  0  0  0  0  0
    5.8295   -3.9846    1.2509 O   0  0  0  0  0  0  0  0  0  0  0  0
    7.5994   -5.2967   -0.3178 C   0  0  1  0  0  0  0  0  0  0  0  0
    7.0505   -7.0568   -0.8925 C   0  0  0  0  0  0  0  0  0  0  0  0
    6.1242   -7.8694   -0.6361 O   0  0  0  0  0  0  0  0  0  0  0  0
    7.7691   -7.8711   -1.7052 N   0  0  0  0  0  0  0  0  0  0  0  0
    7.7164   -7.3656   -3.0299 C   0  0  1  0  0  0  0  0  0  0  0  0
    6.9838   -8.3413   -3.9549 C   0  0  0  0  0  0  0  0  0  0  0  0
    7.0677   -5.9814   -2.9238 C   0  0  0  0  0  0  0  0  0  0  0  0
    7.5848   -5.0998   -3.6361 O   0  0  0  0  0  0  0  0  0  0  0  0
    5.7939   -5.7226   -2.1770 N   0  0  0  0  0  0  0  0  0  0  0  0
    5.0377   -5.0008   -3.1830 C   0  0  0  0  0  0  0  0  0  0  0  0
    5.0840   -6.0672   -0.5135 C   0  0  0  0  0  0  0  0  0  0  0  0
    5.6879   -6.7004    1.2309 C   0  0  0  0  0  0  0  0  0  0  0  0
    4.8776   -6.4298    2.1289 O   0  0  0  0  0  0  0  0  0  0  0  0
    6.9657   -7.5281    1.6906 N   0  0  0  0  0  0  0  0  0  0  0  0
    8.0767   -8.0491    0.9503 C   0  0  0  0  0  0  0  0  0  0  0  0
    7.2189   -8.1439    3.0499 C   0  0  2  0  0  0  0  0  0  0  0  0
    8.6701   -9.0944    3.2545 C   0  0  0  0  0  0  0  0  0  0  0  0
    9.1797  -10.4182    2.4154 C   0  0  0  0  0  0  0  0  0  0  0  0
    9.2177  -10.5970    0.8676 C   0  0  0  0  0  0  0  0  0  0  0  0
   10.6601  -10.6903    2.7924 C   0  0  0  0  0  0  0  0  0  0  0  0
    6.1643   -9.0959    3.5641 C   0  0  0  0  0  0  0  0  0  0  0  0
    5.7875  -10.0628    2.8959 O   0  0  0  0  0  0  0  0  0  0  0  0
    5.7235   -8.9800    4.8558 N   0  0  0  0  0  0  0  0  0  0  0  0
    5.7535   -7.8175    5.7718 C   0  0  2  0  0  0  0  0  0  0  0  0
    5.2456   -6.5070    5.1311 C   0  0  0  0  0  0  0  0  0  0  0  0
    5.3095   -5.2965    6.0721 C   0  0  0  0  0  0  0  0  0  0  0  0
    3.8110   -6.6948    4.6280 C   0  0  0  0  0  0  0  0  0  0  0  0
    7.1499   -7.6637    6.4373 C   0  0  0  0  0  0  0  0  0  0  0  0
    8.0915   -7.1876    5.7932 O   0  0  0  0  0  0  0  0  0  0  0  0
    7.3625   -8.1772    7.7178 N   0  0  0  0  0  0  0  0  0  0  0  0
    6.3021   -8.2708    8.7209 C   0  0  0  0  0  0  0  0  0  0  0  0
    8.7721   -8.1584    8.2005 C   0  0  2  0  0  0  0  0  0  0  0  0
    9.1767   -9.4510    8.9380 C   0  0  0  0  0  0  0  0  0  0  0  0
    9.0452  -10.7381    8.0955 C   0  0  0  0  0  0  0  0  0  0  0  0
    9.9596  -10.7493    6.8700 C   0  0  0  0  0  0  0  0  0  0  0  0
    9.3654  -11.9542    8.9666 C   0  0  0  0  0  0  0  0  0  0  0  0
    9.0740   -6.9425    9.1134 C   0  0  0  0  0  0  0  0  0  0  0  0
    8.3613   -6.6567   10.0815 O   0  0  0  0  0  0  0  0  0  0  0  0
   10.1863   -6.1711    8.9285 N   0  0  0  0  0  0  0  0  0  0  0  0
   10.9618   -5.9739    7.7010 C   0  0  1  0  0  0  0  0  0  0  0  0
   11.2633   -4.4982    7.5484 C   0  0  0  0  0  0  0  0  0  0  0  0
   12.0940   -7.0300    7.5107 C   0  0  0  0  0  0  0  0  0  0  0  0
   11.7774   -8.2270    7.4254 O   0  0  0  0  0  0  0  0  0  0  0  0
   13.4282   -6.8320    7.4125 N   0  0  0  0  0  0  0  0  0  0  0  0
   14.3689   -5.7377    7.6866 C   0  0  2  0  0  0  0  0  0  0  0  0
   14.2085   -5.1905    9.0988 C   0  0  0  0  0  0  0  0  0  0  0  0
   14.4435   -4.6704    6.5586 C   0  0  0  0  0  0  0  0  0  0  0  0
   14.1318   -3.4975    6.7548 O   0  0  0  0  0  0  0  0  0  0  0  0
   14.8089   -5.1427    5.2862 N   0  0  0  0  0  0  0  0  0  0  0  0
   16.1625   -5.6640    5.1279 C   0  0  0  0  0  0  0  0  0  0  0  0
   14.2534   -4.4082    4.1159 C   0  0  1  0  0  0  0  0  0  0  0  0
   12.7314   -4.4835    4.1237 C   0  0  0  0  0  0  0  0  0  0  0  0
   12.0461   -5.8488    4.0911 C   0  0  0  0  0  0  0  0  0  0  0  0
   10.5398   -5.5621    4.0986 C   0  0  0  0  0  0  0  0  0  0  0  0
   12.4692   -6.6684    2.8725 C   0  0  0  0  0  0  0  0  0  0  0  0
   14.8787   -2.9856    3.9136 C   0  0  0  0  0  0  0  0  0  0  0  0
   16.1085   -2.8375    4.0153 O   0  0  0  0  0  0  0  0  0  0  0  0
   14.1957   -1.8699    3.5214 N   0  0  0  0  0  0  0  0  0  0  0  0
   12.7786   -1.5591    3.1901 C   0  0  1  0  0  0  0  0  0  0  0  0
   12.5450   -0.0486    3.3991 C   0  0  0  0  0  0  0  0  0  0  0  0
   12.9427    0.6169    4.7667 C   0  0  0  0  0  0  0  0  0  0  0  0
   14.4368    0.6452    5.0961 C   0  0  0  0  0  0  0  0  0  0  0  0
   12.4339    2.0705    4.7679 C   0  0  0  0  0  0  0  0  0  0  0  0
   12.5369   -2.2638    1.7459 C   0  0  0  0  0  0  0  0  0  0  0  0
   13.3647   -3.1658    1.4694 O   0  0  0  0  0  0  0  0  0  0  0  0
   11.3863   -2.1984    0.9223 N   0  0  0  0  0  0  0  0  0  0  0  0
   10.6475   -0.9670    0.8450 C   0  0  0  0  0  0  0  0  0  0  0  0
   11.1611   -3.1352   -0.3329 C   0  0  1  0  0  0  0  0  0  0  0  0
   12.1799   -4.2696   -0.6885 C   0  0  0  0  0  0  0  0  0  0  0  0
   11.7070   -5.1751   -1.8453 C   0  0  0  0  0  0  0  0  0  0  0  0
   13.5960   -3.7932   -1.0663 C   0  0  0  0  0  0  0  0  0  0  0  0
    9.6156   -3.6008   -0.5804 C   0  0  0  0  0  0  0  0  0  0  0  0
    8.8828   -2.7924   -1.1794 O   0  0  0  0  0  0  0  0  0  0  0  0
    9.1157   -4.8587   -0.1645 N   0  0  0  0  0  0  0  0  0  0  0  0
    9.8895   -5.5992    0.8114 C   0  0  0  0  0  0  0  0  0  0  0  0
    1.7859    0.4154   -3.4938 H   0  0  0  0  0  0  0  0  0  0  0  0
    2.7271   -0.6308   -4.5628 H   0  0  0  0  0  0  0  0  0  0  0  0
    3.5182    0.7071   -3.6877 H   0  0  0  0  0  0  0  0  0  0  0  0
    2.3995   -0.8472   -1.5786 H   0  0  0  0  0  0  0  0  0  0  0  0
    4.6441   -1.9694   -3.3327 H   0  0  0  0  0  0  0  0  0  0  0  0
    4.0232   -3.7422   -1.4792 H   0  0  0  0  0  0  0  0  0  0  0  0
    3.8267   -2.4562   -0.3714 H   0  0  0  0  0  0  0  0  0  0  0  0
    6.5246   -2.7830   -1.8753 H   0  0  0  0  0  0  0  0  0  0  0  0
    5.4371   -1.1382    0.4783 H   0  0  0  0  0  0  0  0  0  0  0  0
    5.9309   -0.5535   -1.1109 H   0  0  0  0  0  0  0  0  0  0  0  0
    7.1464   -1.1319    0.0196 H   0  0  0  0  0  0  0  0  0  0  0  0
    7.4134   -3.2290    0.5079 H   0  0  0  0  0  0  0  0  0  0  0  0
    5.0116   -3.4624    1.1974 H   0  0  0  0  0  0  0  0  0  0  0  0
    7.5317   -5.5653    0.7302 H   0  0  0  0  0  0  0  0  0  0  0  0
    7.2375   -8.7281   -1.6381 H   0  0  0  0  0  0  0  0  0  0  0  0
    8.7675   -7.3355   -3.2806 H   0  0  0  0  0  0  0  0  0  0  0  0
    5.9026   -8.1686   -3.9772 H   0  0  0  0  0  0  0  0  0  0  0  0
    7.1338   -9.4027   -3.6880 H   0  0  0  0  0  0  0  0  0  0  0  0
    7.3703   -8.2123   -4.9692 H   0  0  0  0  0  0  0  0  0  0  0  0
    5.1957   -5.4775   -4.1593 H   0  0  0  0  0  0  0  0  0  0  0  0
    5.4890   -4.0121   -3.3053 H   0  0  0  0  0  0  0  0  0  0  0  0
    3.9717   -4.9819   -3.0022 H   0  0  0  0  0  0  0  0  0  0  0  0
    4.2270   -6.7305   -0.7733 H   0  0  0  0  0  0  0  0  0  0  0  0
    4.5945   -5.1727   -0.2713 H   0  0  0  0  0  0  0  0  0  0  0  0
    8.6032   -7.4931    0.2065 H   0  0  0  0  0  0  0  0  0  0  0  0
    7.7091   -8.9997    0.5917 H   0  0  0  0  0  0  0  0  0  0  0  0
    8.9842   -8.0922    1.5200 H   0  0  0  0  0  0  0  0  0  0  0  0
    7.3895   -7.2848    3.6865 H   0  0  0  0  0  0  0  0  0  0  0  0
    9.5134   -8.3865    3.2569 H   0  0  0  0  0  0  0  0  0  0  0  0
    8.6412   -9.4330    4.2963 H   0  0  0  0  0  0  0  0  0  0  0  0
    8.5768  -11.2529    2.7885 H   0  0  0  0  0  0  0  0  0  0  0  0
    9.7579   -9.7898    0.3519 H   0  0  0  0  0  0  0  0  0  0  0  0
    8.2285  -10.7522    0.4279 H   0  0  0  0  0  0  0  0  0  0  0  0
    9.7603  -11.5075    0.5774 H   0  0  0  0  0  0  0  0  0  0  0  0
   11.3143   -9.8964    2.4041 H   0  0  0  0  0  0  0  0  0  0  0  0
   11.0170  -11.6278    2.3372 H   0  0  0  0  0  0  0  0  0  0  0  0
   10.8042  -10.7753    3.8656 H   0  0  0  0  0  0  0  0  0  0  0  0
    5.0490   -9.7031    5.0641 H   0  0  0  0  0  0  0  0  0  0  0  0
    5.0110   -8.0837    6.5201 H   0  0  0  0  0  0  0  0  0  0  0  0
    5.8792   -6.2268    4.2878 H   0  0  0  0  0  0  0  0  0  0  0  0
    4.6042   -5.3991    6.8949 H   0  0  0  0  0  0  0  0  0  0  0  0
    5.0692   -4.3895    5.5138 H   0  0  0  0  0  0  0  0  0  0  0  0
    6.3157   -5.1603    6.4818 H   0  0  0  0  0  0  0  0  0  0  0  0
    3.1376   -6.9957    5.4356 H   0  0  0  0  0  0  0  0  0  0  0  0
    3.7550   -7.4783    3.8657 H   0  0  0  0  0  0  0  0  0  0  0  0
    3.4289   -5.7684    4.1864 H   0  0  0  0  0  0  0  0  0  0  0  0
    5.3304   -8.5078    8.2951 H   0  0  0  0  0  0  0  0  0  0  0  0
    6.2028   -7.3063    9.2254 H   0  0  0  0  0  0  0  0  0  0  0  0
    6.5275   -9.0560    9.4432 H   0  0  0  0  0  0  0  0  0  0  0  0
    9.4137   -8.0872    7.3268 H   0  0  0  0  0  0  0  0  0  0  0  0
   10.2124   -9.3527    9.2890 H   0  0  0  0  0  0  0  0  0  0  0  0
    8.5779   -9.5577    9.8509 H   0  0  0  0  0  0  0  0  0  0  0  0
    8.0093  -10.8363    7.7491 H   0  0  0  0  0  0  0  0  0  0  0  0
   11.0123  -10.6675    7.1578 H   0  0  0  0  0  0  0  0  0  0  0  0
    9.7281   -9.9297    6.1870 H   0  0  0  0  0  0  0  0  0  0  0  0
    9.8431  -11.6815    6.3068 H   0  0  0  0  0  0  0  0  0  0  0  0
   10.3896  -11.9041    9.3524 H   0  0  0  0  0  0  0  0  0  0  0  0
    9.2649  -12.8812    8.3926 H   0  0  0  0  0  0  0  0  0  0  0  0
    8.6822  -12.0118    9.8198 H   0  0  0  0  0  0  0  0  0  0  0  0
   10.2123   -5.4156    9.6023 H   0  0  0  0  0  0  0  0  0  0  0  0
   10.2784   -6.2003    6.8754 H   0  0  0  0  0  0  0  0  0  0  0  0
   11.6506   -4.0344    8.4567 H   0  0  0  0  0  0  0  0  0  0  0  0
   10.3565   -3.9427    7.2787 H   0  0  0  0  0  0  0  0  0  0  0  0
   11.9686   -4.3392    6.7535 H   0  0  0  0  0  0  0  0  0  0  0  0
   13.8738   -7.7265    7.2414 H   0  0  0  0  0  0  0  0  0  0  0  0
   15.3517   -6.2230    7.6874 H   0  0  0  0  0  0  0  0  0  0  0  0
   13.1663   -5.1263    9.4133 H   0  0  0  0  0  0  0  0  0  0  0  0
   14.6686   -4.2058    9.2122 H   0  0  0  0  0  0  0  0  0  0  0  0
   14.6897   -5.8700    9.8122 H   0  0  0  0  0  0  0  0  0  0  0  0
   16.3904   -6.4083    5.8928 H   0  0  0  0  0  0  0  0  0  0  0  0
   16.8828   -4.8472    5.2383 H   0  0  0  0  0  0  0  0  0  0  0  0
   16.2779   -6.1311    4.1457 H   0  0  0  0  0  0  0  0  0  0  0  0
   14.5882   -4.9632    3.2278 H   0  0  0  0  0  0  0  0  0  0  0  0
   12.3452   -4.0129    3.2357 H   0  0  0  0  0  0  0  0  0  0  0  0
   12.3447   -3.8822    4.9431 H   0  0  0  0  0  0  0  0  0  0  0  0
   12.2899   -6.4286    4.9791 H   0  0  0  0  0  0  0  0  0  0  0  0
   10.2548   -4.8622    3.3108 H   0  0  0  0  0  0  0  0  0  0  0  0
   10.2356   -5.0689    5.0231 H   0  0  0  0  0  0  0  0  0  0  0  0
    9.9532   -6.4708    3.9927 H   0  0  0  0  0  0  0  0  0  0  0  0
   12.5627   -6.0454    1.9811 H   0  0  0  0  0  0  0  0  0  0  0  0
   11.7557   -7.4668    2.6525 H   0  0  0  0  0  0  0  0  0  0  0  0
   13.4479   -7.1300    3.0387 H   0  0  0  0  0  0  0  0  0  0  0  0
   14.8669   -1.1508    3.2801 H   0  0  0  0  0  0  0  0  0  0  0  0
   12.1435   -2.0628    3.9235 H   0  0  0  0  0  0  0  0  0  0  0  0
   11.4649    0.1183    3.3567 H   0  0  0  0  0  0  0  0  0  0  0  0
   13.0037    0.5129    2.5813 H   0  0  0  0  0  0  0  0  0  0  0  0
   12.4285    0.0890    5.5800 H   0  0  0  0  0  0  0  0  0  0  0  0
   15.0323    0.9663    4.2370 H   0  0  0  0  0  0  0  0  0  0  0  0
   14.7923   -0.3302    5.4370 H   0  0  0  0  0  0  0  0  0  0  0  0
   14.6471    1.3412    5.9206 H   0  0  0  0  0  0  0  0  0  0  0  0
   12.8840    2.6454    3.9502 H   0  0  0  0  0  0  0  0  0  0  0  0
   12.6804    2.5813    5.7078 H   0  0  0  0  0  0  0  0  0  0  0  0
   11.3464    2.1087    4.6527 H   0  0  0  0  0  0  0  0  0  0  0  0
   10.8777   -0.2700    1.6237 H   0  0  0  0  0  0  0  0  0  0  0  0
    9.5661   -1.1689    0.8855 H   0  0  0  0  0  0  0  0  0  0  0  0
   10.8965   -0.4592   -0.0942 H   0  0  0  0  0  0  0  0  0  0  0  0
   11.3032   -2.4184   -1.1465 H   0  0  0  0  0  0  0  0  0  0  0  0
   12.3068   -4.9093    0.1892 H   0  0  0  0  0  0  0  0  0  0  0  0
   12.0946   -4.8366   -2.8113 H   0  0  0  0  0  0  0  0  0  0  0  0
   10.6298   -5.2376   -1.9803 H   0  0  0  0  0  0  0  0  0  0  0  0
   12.0538   -6.2002   -1.6758 H   0  0  0  0  0  0  0  0  0  0  0  0
   13.7057   -3.6254   -2.1408 H   0  0  0  0  0  0  0  0  0  0  0  0
   14.3162   -4.5684   -0.7754 H   0  0  0  0  0  0  0  0  0  0  0  0
   13.9034   -2.8584   -0.5993 H   0  0  0  0  0  0  0  0  0  0  0  0
   10.6521   -4.9762    1.2637 H   0  0  0  0  0  0  0  0  0  0  0  0
   10.3564   -6.4625    0.3291 H   0  0  0  0  0  0  0  0  0  0  0  0
    9.2613   -5.9109    1.6437 H   0  0  0  0  0  0  0  0  0  0  0  0
  1  2  1  0  0  0  0
  1 84  1  0  0  0  0
  1 85  1  0  0  0  0
  1 86  1  0  0  0  0
  2  3  2  0  0  0  0
  2 87  1  0  0  0  0
  3  4  1  0  0  0  0
  3 88  1  0  0  0  0
  4  5  1  0  0  0  0
  4 89  1  0  0  0  0
  4 90  1  0  0  0  0
  5  6  1  0  0  0  0
  5  7  1  0  0  0  0
  5 91  1  6  0  0  0
  6 92  1  0  0  0  0
  6 93  1  0  0  0  0
  6 94  1  0  0  0  0
  7  8  1  0  0  0  0
  7  9  1  0  0  0  0
  7 95  1  1  0  0  0
  8 96  1  0  0  0  0
  9 10  1  0  0  0  0
  9 82  1  0  0  0  0
  9 97  1  1  0  0  0
 10 11  2  0  0  0  0
 10 12  1  0  0  0  0
 12 13  1  0  0  0  0
 12 98  1  0  0  0  0
 13 14  1  0  0  0  0
 13 15  1  0  0  0  0
 13 99  1  6  0  0  0
 14100  1  0  0  0  0
 14101  1  0  0  0  0
 14102  1  0  0  0  0
 15 16  2  0  0  0  0
 15 17  1  0  0  0  0
 17 18  1  0  0  0  0
 17 19  1  0  0  0  0
 18103  1  0  0  0  0
 18104  1  0  0  0  0
 18105  1  0  0  0  0
 19 20  1  0  0  0  0
 19106  1  0  0  0  0
 19107  1  0  0  0  0
 20 21  2  0  0  0  0
 20 22  1  0  0  0  0
 22 23  1  0  0  0  0
 22 24  1  0  0  0  0
 23108  1  0  0  0  0
 23109  1  0  0  0  0
 23110  1  0  0  0  0
 24 29  1  0  0  0  0
 24 25  1  0  0  0  0
 24111  1  1  0  0  0
 25 26  1  0  0  0  0
 25112  1  0  0  0  0
 25113  1  0  0  0  0
 26 27  1  0  0  0  0
 26 28  1  0  0  0  0
 26114  1  0  0  0  0
 27115  1  0  0  0  0
 27116  1  0  0  0  0
 27117  1  0  0  0  0
 28118  1  0  0  0  0
 28119  1  0  0  0  0
 28120  1  0  0  0  0
 29 30  2  0  0  0  0
 29 31  1  0  0  0  0
 31 32  1  0  0  0  0
 31121  1  0  0  0  0
 32 36  1  0  0  0  0
 32 33  1  0  0  0  0
 32122  1  1  0  0  0
 33 34  1  0  0  0  0
 33 35  1  0  0  0  0
 33123  1  0  0  0  0
 34124  1  0  0  0  0
 34125  1  0  0  0  0
 34126  1  0  0  0  0
 35127  1  0  0  0  0
 35128  1  0  0  0  0
 35129  1  0  0  0  0
 36 37  2  0  0  0  0
 36 38  1  0  0  0  0
 38 39  1  0  0  0  0
 38 40  1  0  0  0  0
 39130  1  0  0  0  0
 39131  1  0  0  0  0
 39132  1  0  0  0  0
 40 45  1  0  0  0  0
 40 41  1  0  0  0  0
 40133  1  6  0  0  0
 41 42  1  0  0  0  0
 41134  1  0  0  0  0
 41135  1  0  0  0  0
 42 43  1  0  0  0  0
 42 44  1  0  0  0  0
 42136  1  0  0  0  0
 43137  1  0  0  0  0
 43138  1  0  0  0  0
 43139  1  0  0  0  0
 44140  1  0  0  0  0
 44141  1  0  0  0  0
 44142  1  0  0  0  0
 45 46  2  0  0  0  0
 45 47  1  0  0  0  0
 47 48  1  0  0  0  0
 47143  1  0  0  0  0
 48 49  1  0  0  0  0
 48 50  1  0  0  0  0
 48144  1  6  0  0  0
 49145  1  0  0  0  0
 49146  1  0  0  0  0
 49147  1  0  0  0  0
 50 51  2  0  0  0  0
 50 52  1  0  0  0  0
 52 53  1  0  0  0  0
 52148  1  0  0  0  0
 53 55  1  0  0  0  0
 53 54  1  0  0  0  0
 53149  1  6  0  0  0
 54150  1  0  0  0  0
 54151  1  0  0  0  0
 54152  1  0  0  0  0
 55 56  2  0  0  0  0
 55 57  1  0  0  0  0
 57 58  1  0  0  0  0
 57 59  1  0  0  0  0
 58153  1  0  0  0  0
 58154  1  0  0  0  0
 58155  1  0  0  0  0
 59 60  1  0  0  0  0
 59 64  1  0  0  0  0
 59156  1  6  0  0  0
 60 61  1  0  0  0  0
 60157  1  0  0  0  0
 60158  1  0  0  0  0
 61 62  1  0  0  0  0
 61 63  1  0  0  0  0
 61159  1  0  0  0  0
 62160  1  0  0  0  0
 62161  1  0  0  0  0
 62162  1  0  0  0  0
 63163  1  0  0  0  0
 63164  1  0  0  0  0
 63165  1  0  0  0  0
 64 65  2  0  0  0  0
 64 66  1  0  0  0  0
 66 67  1  0  0  0  0
 66166  1  0  0  0  0
 67 68  1  0  0  0  0
 67 72  1  0  0  0  0
 67167  1  1  0  0  0
 68 69  1  0  0  0  0
 68168  1  0  0  0  0
 68169  1  0  0  0  0
 69 70  1  0  0  0  0
 69 71  1  0  0  0  0
 69170  1  0  0  0  0
 70171  1  0  0  0  0
 70172  1  0  0  0  0
 70173  1  0  0  0  0
 71174  1  0  0  0  0
 71175  1  0  0  0  0
 71176  1  0  0  0  0
 72 73  2  0  0  0  0
 72 74  1  0  0  0  0
 74 75  1  0  0  0  0
 74 76  1  0  0  0  0
 75177  1  0  0  0  0
 75178  1  0  0  0  0
 75179  1  0  0  0  0
 76 77  1  0  0  0  0
 76 80  1  0  0  0  0
 76180  1  6  0  0  0
 77 78  1  0  0  0  0
 77 79  1  0  0  0  0
 77181  1  0  0  0  0
 78182  1  0  0  0  0
 78183  1  0  0  0  0
 78184  1  0  0  0  0
 79185  1  0  0  0  0
 79186  1  0  0  0  0
 79187  1  0  0  0  0
 80 81  2  0  0  0  0
 80 82  1  0  0  0  0
 82 83  1  0  0  0  0
 83188  1  0  0  0  0
 83189  1  0  0  0  0
 83190  1  0  0  0  0
M  END
>  <Energy>
938.847

$$$$