30
 OpenBabel03292021443D

210210  0  0  1  0  0  0  0  0999 V2000
    2.5934    3.8737   -0.2188 C   0  0  0  0  0  0  0  0  0  0  0  0
    2.7642    4.4798    1.2044 C   0  0  0  0  0  0  0  0  0  0  0  0
    4.0087    4.9218    2.1010 C   0  0  0  0  0  0  0  0  0  0  0  0
    5.3727    4.7772    2.2078 C   0  0  0  0  0  0  0  0  0  0  0  0
    6.4733    5.5676    3.3695 C   0  0  0  0  0  0  0  0  0  0  0  0
    8.0443    5.5626    4.4025 C   0  0  1  0  0  0  0  0  0  0  0  0
    8.9373    4.6295    3.4819 C   0  0  0  0  0  0  0  0  0  0  0  0
    8.9688    7.0565    5.1825 C   0  0  1  0  0  0  0  0  0  0  0  0
    8.5102    8.2380    4.5194 O   0  0  0  0  0  0  0  0  0  0  0  0
   10.1525    7.4013    6.7058 C   0  0  1  0  0  0  0  0  0  0  0  0
   10.3983    8.4008    8.3944 C   0  0  0  0  0  0  0  0  0  0  0  0
    9.4984    8.2374    9.2482 O   0  0  0  0  0  0  0  0  0  0  0  0
   11.8002    9.0062    9.1455 N   0  0  0  0  0  0  0  0  0  0  0  0
   12.3534    9.9766   10.6680 C   0  0  1  0  0  0  0  0  0  0  0  0
   12.5846   11.7579   10.7911 C   0  0  0  0  0  0  0  0  0  0  0  0
   13.3226   12.8433   11.9363 C   0  0  0  0  0  0  0  0  0  0  0  0
   13.2875    9.4249   12.0830 C   0  0  0  0  0  0  0  0  0  0  0  0
   12.6539    8.6784   12.8476 O   0  0  0  0  0  0  0  0  0  0  0  0
   14.5940    9.7606   12.5874 N   0  0  0  0  0  0  0  0  0  0  0  0
   15.5542   10.8000   12.1976 C   0  0  0  0  0  0  0  0  0  0  0  0
   15.2244    8.7910   13.5650 C   0  0  0  0  0  0  0  0  0  0  0  0
   14.8863    8.2485   14.9976 C   0  0  0  0  0  0  0  0  0  0  0  0
   15.0214    7.0196   15.1233 O   0  0  0  0  0  0  0  0  0  0  0  0
   14.6099    9.0363   16.1205 N   0  0  0  0  0  0  0  0  0  0  0  0
   14.7117   10.4783   16.1197 C   0  0  0  0  0  0  0  0  0  0  0  0
   14.2646    8.3565   17.4318 C   0  0  2  0  0  0  0  0  0  0  0  0
   12.8205    8.6449   17.9534 C   0  0  0  0  0  0  0  0  0  0  0  0
   11.6964    7.9516   17.1843 C   0  0  0  0  0  0  0  0  0  0  0  0
   10.3080    8.3368   17.6939 C   0  0  0  0  0  0  0  0  0  0  0  0
   11.7379    8.3082   15.7229 C   0  0  0  0  0  0  0  0  0  0  0  0
   15.2229    8.6687   18.6191 C   0  0  0  0  0  0  0  0  0  0  0  0
   15.4317    9.8356   18.9778 O   0  0  0  0  0  0  0  0  0  0  0  0
   15.8110    7.6908   19.3813 N   0  0  0  0  0  0  0  0  0  0  0  0
   16.0501    6.2492   19.1220 C   0  0  2  0  0  0  0  0  0  0  0  0
   16.6765    6.0056   17.7363 C   0  0  0  0  0  0  0  0  0  0  0  0
   16.8429    4.5306   17.3813 C   0  0  0  0  0  0  0  0  0  0  0  0
   17.9834    6.7755   17.5341 C   0  0  0  0  0  0  0  0  0  0  0  0
   14.7256    5.4643   19.3140 C   0  0  0  0  0  0  0  0  0  0  0  0
   13.7633    5.7396   18.5971 O   0  0  0  0  0  0  0  0  0  0  0  0
   14.5773    4.5036   20.3032 N   0  0  0  0  0  0  0  0  0  0  0  0
   15.6612    3.8535   21.0335 C   0  0  0  0  0  0  0  0  0  0  0  0
   13.1999    3.9624   20.4745 C   0  0  2  0  0  0  0  0  0  0  0  0
   12.6364    4.1812   21.8887 C   0  0  0  0  0  0  0  0  0  0  0  0
   12.5521    5.6686   22.2980 C   0  0  0  0  0  0  0  0  0  0  0  0
   11.6152    6.5003   21.4117 C   0  0  0  0  0  0  0  0  0  0  0  0
   12.0861    5.7703   23.7478 C   0  0  0  0  0  0  0  0  0  0  0  0
   13.0661    2.4854   20.0584 C   0  0  0  0  0  0  0  0  0  0  0  0
   13.6907    1.5849   20.6283 O   0  0  0  0  0  0  0  0  0  0  0  0
   12.2534    2.1310   19.0186 N   0  0  0  0  0  0  0  0  0  0  0  0
   11.4858    2.9732   18.0789 C   0  0  1  0  0  0  0  0  0  0  0  0
   11.4573    2.2716   16.7403 C   0  0  0  0  0  0  0  0  0  0  0  0
   10.1667    3.4772   18.7456 C   0  0  0  0  0  0  0  0  0  0  0  0
   10.2153    3.9648   19.8863 O   0  0  0  0  0  0  0  0  0  0  0  0
    8.9244    3.5469   18.2138 N   0  0  0  0  0  0  0  0  0  0  0  0
    8.1446    2.6611   17.3430 C   0  0  2  0  0  0  0  0  0  0  0  0
    8.3490    1.1652   17.6158 C   0  0  0  0  0  0  0  0  0  0  0  0
    7.9947    0.7248   19.0365 C   0  0  0  0  0  0  0  0  0  0  0  0
    8.3633   -0.7509   19.2184 C   0  0  0  0  0  0  0  0  0  0  0  0
    7.9164   -1.2846   20.5748 C   0  0  0  0  0  0  0  0  0  0  0  0
    8.2472   -2.7004   20.6889 N   0  0  0  0  0  0  0  0  0  0  0  0
    8.2752    2.9937   15.8373 C   0  0  0  0  0  0  0  0  0  0  0  0
    8.7836    2.1819   15.0715 O   0  0  0  0  0  0  0  0  0  0  0  0
    7.7846    4.2449   15.4233 N   0  0  0  0  0  0  0  0  0  0  0  0
    6.3318    4.3700   15.4845 C   0  0  0  0  0  0  0  0  0  0  0  0
    8.3880    4.9111   14.2239 C   0  0  1  0  0  0  0  0  0  0  0  0
    9.8679    5.2839   14.4044 C   0  0  0  0  0  0  0  0  0  0  0  0
   10.5481    5.8994   13.1586 C   0  0  0  0  0  0  0  0  0  0  0  0
   10.0416    7.2955   12.7771 C   0  0  0  0  0  0  0  0  0  0  0  0
   12.0722    5.7782   13.2889 C   0  0  0  0  0  0  0  0  0  0  0  0
    7.9222    4.2575   12.8987 C   0  0  0  0  0  0  0  0  0  0  0  0
    6.9332    4.7233   12.3274 O   0  0  0  0  0  0  0  0  0  0  0  0
    8.4515    3.0602   12.4991 N   0  0  0  0  0  0  0  0  0  0  0  0
    9.8988    2.7725   12.5702 C   0  0  0  0  0  0  0  0  0  0  0  0
    7.7918    2.2544   11.4590 C   0  0  1  0  0  0  0  0  0  0  0  0
    6.2817    2.0194   11.4726 C   0  0  0  0  0  0  0  0  0  0  0  0
    5.8847    1.1063   10.2803 C   0  0  0  0  0  0  0  0  0  0  0  0
    6.5140   -0.2896   10.3365 C   0  0  0  0  0  0  0  0  0  0  0  0
    4.3694    1.0577   10.1823 C   0  0  0  0  0  0  0  0  0  0  0  0
    8.4841    2.5152   10.0994 C   0  0  0  0  0  0  0  0  0  0  0  0
    9.4509    1.8328    9.9335 O   0  0  0  0  0  0  0  0  0  0  0  0
    8.2072    3.5999    9.3516 N   0  0  0  0  0  0  0  0  0  0  0  0
    6.8377    4.0657    8.9811 C   0  0  0  0  0  0  0  0  0  0  0  0
    9.3616    4.4363    8.8233 C   0  0  1  0  0  0  0  0  0  0  0  0
   10.6965    3.6508    8.5668 C   0  0  0  0  0  0  0  0  0  0  0  0
   11.6724    3.6350    9.7116 C   0  0  0  0  0  0  0  0  0  0  0  0
   10.5030    2.4681    7.6046 C   0  0  0  0  0  0  0  0  0  0  0  0
    9.1739    5.4341    7.6263 C   0  0  0  0  0  0  0  0  0  0  0  0
    8.0496    5.8155    7.2694 O   0  0  0  0  0  0  0  0  0  0  0  0
   10.3684    6.0021    7.0811 N   0  0  0  0  0  0  0  0  0  0  0  0
   11.0388    5.1894    6.0339 C   0  0  0  0  0  0  0  0  0  0  0  0
    1.5222    3.9522   -0.5064 H   0  0  0  0  0  0  0  0  0  0  0  0
    2.8046    2.8010   -0.2803 H   0  0  0  0  0  0  0  0  0  0  0  0
    3.1297    4.4103   -1.0052 H   0  0  0  0  0  0  0  0  0  0  0  0
    2.1259    3.8450    1.8403 H   0  0  0  0  0  0  0  0  0  0  0  0
    2.1851    5.4140    1.1072 H   0  0  0  0  0  0  0  0  0  0  0  0
    3.5834    5.5447    2.8896 H   0  0  0  0  0  0  0  0  0  0  0  0
    5.8589    4.1223    1.4763 H   0  0  0  0  0  0  0  0  0  0  0  0
    7.0663    5.8381    2.4807 H   0  0  0  0  0  0  0  0  0  0  0  0
    6.3903    4.5342    3.7720 H   0  0  0  0  0  0  0  0  0  0  0  0
    7.7511    4.9319    5.2484 H   0  0  0  0  0  0  0  0  0  0  0  0
    9.3777    5.1734    2.6418 H   0  0  0  0  0  0  0  0  0  0  0  0
    8.3253    3.8266    3.0320 H   0  0  0  0  0  0  0  0  0  0  0  0
    9.7182    4.0776    3.9966 H   0  0  0  0  0  0  0  0  0  0  0  0
    9.8318    6.8430    4.5354 H   0  0  0  0  0  0  0  0  0  0  0  0
    8.4006    7.9790    3.5832 H   0  0  0  0  0  0  0  0  0  0  0  0
   11.0553    7.7561    6.1855 H   0  0  0  0  0  0  0  0  0  0  0  0
   12.1307    8.1155    9.5065 H   0  0  0  0  0  0  0  0  0  0  0  0
   11.3436    9.9351   11.1105 H   0  0  0  0  0  0  0  0  0  0  0  0
   13.5867   11.6594   10.3847 H   0  0  0  0  0  0  0  0  0  0  0  0
   11.9404   11.6774   11.6755 H   0  0  0  0  0  0  0  0  0  0  0  0
   12.8907   13.8554   11.8457 H   0  0  0  0  0  0  0  0  0  0  0  0
   14.3988   13.0198   11.7814 H   0  0  0  0  0  0  0  0  0  0  0  0
   13.2041   12.5565   12.9984 H   0  0  0  0  0  0  0  0  0  0  0  0
   15.5143   11.6020   12.9534 H   0  0  0  0  0  0  0  0  0  0  0  0
   15.4233   11.1696   11.1935 H   0  0  0  0  0  0  0  0  0  0  0  0
   16.5933   10.4303   12.2661 H   0  0  0  0  0  0  0  0  0  0  0  0
   16.2775    9.1043   13.7161 H   0  0  0  0  0  0  0  0  0  0  0  0
   15.3121    7.8826   12.9578 H   0  0  0  0  0  0  0  0  0  0  0  0
   14.4204   10.8739   15.1488 H   0  0  0  0  0  0  0  0  0  0  0  0
   15.7466   10.7562   16.3379 H   0  0  0  0  0  0  0  0  0  0  0  0
   14.0583   10.9086   16.8826 H   0  0  0  0  0  0  0  0  0  0  0  0
   14.2899    7.2978   17.2304 H   0  0  0  0  0  0  0  0  0  0  0  0
   12.7478    8.3162   19.0013 H   0  0  0  0  0  0  0  0  0  0  0  0
   12.6363    9.7281   17.9842 H   0  0  0  0  0  0  0  0  0  0  0  0
   11.8068    6.8664   17.2868 H   0  0  0  0  0  0  0  0  0  0  0  0
   10.1231    9.4069   17.5460 H   0  0  0  0  0  0  0  0  0  0  0  0
   10.1839    8.0974   18.7504 H   0  0  0  0  0  0  0  0  0  0  0  0
    9.5360    7.7945   17.1311 H   0  0  0  0  0  0  0  0  0  0  0  0
   11.6857    9.3863   15.5416 H   0  0  0  0  0  0  0  0  0  0  0  0
   10.9015    7.8332   15.2373 H   0  0  0  0  0  0  0  0  0  0  0  0
   12.6154    7.9043   15.2494 H   0  0  0  0  0  0  0  0  0  0  0  0
   16.3555    8.0968   20.1299 H   0  0  0  0  0  0  0  0  0  0  0  0
   16.7765    5.9683   19.8864 H   0  0  0  0  0  0  0  0  0  0  0  0
   15.9969    6.3870   16.9909 H   0  0  0  0  0  0  0  0  0  0  0  0
   17.5475    4.0273   18.0469 H   0  0  0  0  0  0  0  0  0  0  0  0
   17.2061    4.4344   16.3513 H   0  0  0  0  0  0  0  0  0  0  0  0
   15.8832    4.0042   17.4229 H   0  0  0  0  0  0  0  0  0  0  0  0
   18.7741    6.4071   18.1931 H   0  0  0  0  0  0  0  0  0  0  0  0
   17.8520    7.8466   17.7220 H   0  0  0  0  0  0  0  0  0  0  0  0
   18.3224    6.6795   16.4967 H   0  0  0  0  0  0  0  0  0  0  0  0
   16.6162    4.3618   20.9271 H   0  0  0  0  0  0  0  0  0  0  0  0
   15.7970    2.8394   20.6479 H   0  0  0  0  0  0  0  0  0  0  0  0
   15.4163    3.8123   22.0980 H   0  0  0  0  0  0  0  0  0  0  0  0
   12.5368    4.5188   19.8237 H   0  0  0  0  0  0  0  0  0  0  0  0
   11.6380    3.7306   21.9553 H   0  0  0  0  0  0  0  0  0  0  0  0
   13.2455    3.6348   22.6190 H   0  0  0  0  0  0  0  0  0  0  0  0
   13.5546    6.1072   22.2334 H   0  0  0  0  0  0  0  0  0  0  0  0
   10.5788    6.1563   21.4901 H   0  0  0  0  0  0  0  0  0  0  0  0
   11.9006    6.4708   20.3590 H   0  0  0  0  0  0  0  0  0  0  0  0
   11.6408    7.5532   21.7138 H   0  0  0  0  0  0  0  0  0  0  0  0
   11.0661    5.3875   23.8627 H   0  0  0  0  0  0  0  0  0  0  0  0
   12.0986    6.8117   24.0854 H   0  0  0  0  0  0  0  0  0  0  0  0
   12.7424    5.1944   24.4079 H   0  0  0  0  0  0  0  0  0  0  0  0
   12.2448    1.1301   18.8661 H   0  0  0  0  0  0  0  0  0  0  0  0
   12.0625    3.8891   17.9077 H   0  0  0  0  0  0  0  0  0  0  0  0
   11.2591    1.2003   16.8287 H   0  0  0  0  0  0  0  0  0  0  0  0
   12.4318    2.3515   16.2457 H   0  0  0  0  0  0  0  0  0  0  0  0
   10.7422    2.7281   16.0750 H   0  0  0  0  0  0  0  0  0  0  0  0
    8.3421    4.0239   18.8937 H   0  0  0  0  0  0  0  0  0  0  0  0
    7.1049    2.8661   17.6169 H   0  0  0  0  0  0  0  0  0  0  0  0
    7.7301    0.5931   16.9121 H   0  0  0  0  0  0  0  0  0  0  0  0
    9.3749    0.8702   17.4081 H   0  0  0  0  0  0  0  0  0  0  0  0
    6.9221    0.8716   19.2078 H   0  0  0  0  0  0  0  0  0  0  0  0
    8.5298    1.3270   19.7792 H   0  0  0  0  0  0  0  0  0  0  0  0
    9.4504   -0.8661   19.1135 H   0  0  0  0  0  0  0  0  0  0  0  0
    7.9001   -1.3406   18.4170 H   0  0  0  0  0  0  0  0  0  0  0  0
    6.8364   -1.1532   20.6950 H   0  0  0  0  0  0  0  0  0  0  0  0
    8.4150   -0.7325   21.3778 H   0  0  0  0  0  0  0  0  0  0  0  0
    7.7524   -3.2337   19.9753 H   0  0  0  0  0  0  0  0  0  0  0  0
    7.9190   -3.0530   21.5876 H   0  0  0  0  0  0  0  0  0  0  0  0
    5.9311    3.9959   16.4270 H   0  0  0  0  0  0  0  0  0  0  0  0
    5.8903    3.7685   14.6825 H   0  0  0  0  0  0  0  0  0  0  0  0
    6.0384    5.4169   15.3703 H   0  0  0  0  0  0  0  0  0  0  0  0
    7.8988    5.8963   14.2039 H   0  0  0  0  0  0  0  0  0  0  0  0
   10.4464    4.4323   14.7622 H   0  0  0  0  0  0  0  0  0  0  0  0
    9.9339    5.9809   15.2476 H   0  0  0  0  0  0  0  0  0  0  0  0
   10.3012    5.3144   12.2764 H   0  0  0  0  0  0  0  0  0  0  0  0
   10.0106    8.0049   13.6024 H   0  0  0  0  0  0  0  0  0  0  0  0
    9.0247    7.2346   12.3906 H   0  0  0  0  0  0  0  0  0  0  0  0
   10.6587    7.7191   11.9875 H   0  0  0  0  0  0  0  0  0  0  0  0
   12.4397    6.1469   14.2405 H   0  0  0  0  0  0  0  0  0  0  0  0
   12.5944    6.2930   12.4784 H   0  0  0  0  0  0  0  0  0  0  0  0
   12.3737    4.7253   13.2365 H   0  0  0  0  0  0  0  0  0  0  0  0
   10.3487    3.0052   13.5210 H   0  0  0  0  0  0  0  0  0  0  0  0
   10.3690    3.4132   11.8271 H   0  0  0  0  0  0  0  0  0  0  0  0
   10.1346    1.7375   12.3402 H   0  0  0  0  0  0  0  0  0  0  0  0
    8.1466    1.2625   11.6881 H   0  0  0  0  0  0  0  0  0  0  0  0
    5.7102    2.9380   11.4618 H   0  0  0  0  0  0  0  0  0  0  0  0
    6.0287    1.5232   12.4159 H   0  0  0  0  0  0  0  0  0  0  0  0
    6.2316    1.5409    9.3372 H   0  0  0  0  0  0  0  0  0  0  0  0
    6.2874   -0.7968   11.2800 H   0  0  0  0  0  0  0  0  0  0  0  0
    7.6042   -0.2467   10.2269 H   0  0  0  0  0  0  0  0  0  0  0  0
    6.1505   -0.9094    9.5089 H   0  0  0  0  0  0  0  0  0  0  0  0
    3.9209    0.7193   11.1199 H   0  0  0  0  0  0  0  0  0  0  0  0
    4.0494    0.3964    9.3715 H   0  0  0  0  0  0  0  0  0  0  0  0
    3.9849    2.0613    9.9622 H   0  0  0  0  0  0  0  0  0  0  0  0
    6.0878    3.7363    9.6844 H   0  0  0  0  0  0  0  0  0  0  0  0
    6.5775    3.6108    8.0116 H   0  0  0  0  0  0  0  0  0  0  0  0
    6.7319    5.1557    8.9350 H   0  0  0  0  0  0  0  0  0  0  0  0
    9.5206    5.1603    9.6532 H   0  0  0  0  0  0  0  0  0  0  0  0
   11.2851    4.3143    7.9996 H   0  0  0  0  0  0  0  0  0  0  0  0
   11.6645    2.7223   10.3017 H   0  0  0  0  0  0  0  0  0  0  0  0
   11.5325    4.5135   10.3522 H   0  0  0  0  0  0  0  0  0  0  0  0
   12.6849    3.7470    9.3044 H   0  0  0  0  0  0  0  0  0  0  0  0
   10.0610    1.5555    7.9955 H   0  0  0  0  0  0  0  0  0  0  0  0
   11.4669    2.1914    7.1842 H   0  0  0  0  0  0  0  0  0  0  0  0
    9.8266    2.7390    6.7846 H   0  0  0  0  0  0  0  0  0  0  0  0
   11.9915    4.7830    6.3793 H   0  0  0  0  0  0  0  0  0  0  0  0
   11.3006    5.7536    5.1394 H   0  0  0  0  0  0  0  0  0  0  0  0
   10.3905    4.3655    5.7518 H   0  0  0  0  0  0  0  0  0  0  0  0
  1  2  1  0  0  0  0
  1 91  1  0  0  0  0
  1 92  1  0  0  0  0
  1 93  1  0  0  0  0
  2  3  1  0  0  0  0
  2 94  1  0  0  0  0
  2 95  1  0  0  0  0
  3  4  2  0  0  0  0
  3 96  1  0  0  0  0
  4  5  1  0  0  0  0
  4 97  1  0  0  0  0
  5  6  1  0  0  0  0
  5 98  1  0  0  0  0
  5 99  1  0  0  0  0
  6  7  1  0  0  0  0
  6  8  1  0  0  0  0
  6100  1  1  0  0  0
  7101  1  0  0  0  0
  7102  1  0  0  0  0
  7103  1  0  0  0  0
  8  9  1  0  0  0  0
  8 10  1  0  0  0  0
  8104  1  6  0  0  0
  9105  1  0  0  0  0
 10 11  1  0  0  0  0
 10 89  1  0  0  0  0
 10106  1  6  0  0  0
 11 12  2  0  0  0  0
 11 13  1  0  0  0  0
 13 14  1  0  0  0  0
 13107  1  0  0  0  0
 14 15  1  0  0  0  0
 14 17  1  0  0  0  0
 14108  1  6  0  0  0
 15 16  1  0  0  0  0
 15109  1  0  0  0  0
 15110  1  0  0  0  0
 16111  1  0  0  0  0
 16112  1  0  0  0  0
 16113  1  0  0  0  0
 17 18  2  0  0  0  0
 17 19  1  0  0  0  0
 19 20  1  0  0  0  0
 19 21  1  0  0  0  0
 20114  1  0  0  0  0
 20115  1  0  0  0  0
 20116  1  0  0  0  0
 21 22  1  0  0  0  0
 21117  1  0  0  0  0
 21118  1  0  0  0  0
 22 23  2  0  0  0  0
 22 24  1  0  0  0  0
 24 25  1  0  0  0  0
 24 26  1  0  0  0  0
 25119  1  0  0  0  0
 25120  1  0  0  0  0
 25121  1  0  0  0  0
 26 31  1  0  0  0  0
 26 27  1  0  0  0  0
 26122  1  6  0  0  0
 27 28  1  0  0  0  0
 27123  1  0  0  0  0
 27124  1  0  0  0  0
 28 29  1  0  0  0  0
 28 30  1  0  0  0  0
 28125  1  0  0  0  0
 29126  1  0  0  0  0
 29127  1  0  0  0  0
 29128  1  0  0  0  0
 30129  1  0  0  0  0
 30130  1  0  0  0  0
 30131  1  0  0  0  0
 31 32  2  0  0  0  0
 31 33  1  0  0  0  0
 33 34  1  0  0  0  0
 33132  1  0  0  0  0
 34 38  1  0  0  0  0
 34 35  1  0  0  0  0
 34133  1  1  0  0  0
 35 36  1  0  0  0  0
 35 37  1  0  0  0  0
 35134  1  0  0  0  0
 36135  1  0  0  0  0
 36136  1  0  0  0  0
 36137  1  0  0  0  0
 37138  1  0  0  0  0
 37139  1  0  0  0  0
 37140  1  0  0  0  0
 38 39  2  0  0  0  0
 38 40  1  0  0  0  0
 40 41  1  0  0  0  0
 40 42  1  0  0  0  0
 41141  1  0  0  0  0
 41142  1  0  0  0  0
 41143  1  0  0  0  0
 42 47  1  0  0  0  0
 42 43  1  0  0  0  0
 42144  1  6  0  0  0
 43 44  1  0  0  0  0
 43145  1  0  0  0  0
 43146  1  0  0  0  0
 44 45  1  0  0  0  0
 44 46  1  0  0  0  0
 44147  1  0  0  0  0
 45148  1  0  0  0  0
 45149  1  0  0  0  0
 45150  1  0  0  0  0
 46151  1  0  0  0  0
 46152  1  0  0  0  0
 46153  1  0  0  0  0
 47 48  2  0  0  0  0
 47 49  1  0  0  0  0
 49 50  1  0  0  0  0
 49154  1  0  0  0  0
 50 51  1  0  0  0  0
 50 52  1  0  0  0  0
 50155  1  6  0  0  0
 51156  1  0  0  0  0
 51157  1  0  0  0  0
 51158  1  0  0  0  0
 52 53  2  0  0  0  0
 52 54  1  0  0  0  0
 54 55  1  0  0  0  0
 54159  1  0  0  0  0
 55 61  1  0  0  0  0
 55 56  1  0  0  0  0
 55160  1  1  0  0  0
 56 57  1  0  0  0  0
 56161  1  0  0  0  0
 56162  1  0  0  0  0
 57 58  1  0  0  0  0
 57163  1  0  0  0  0
 57164  1  0  0  0  0
 58 59  1  0  0  0  0
 58165  1  0  0  0  0
 58166  1  0  0  0  0
 59 60  1  0  0  0  0
 59167  1  0  0  0  0
 59168  1  0  0  0  0
 60169  1  0  0  0  0
 60170  1  0  0  0  0
 61 62  2  0  0  0  0
 61 63  1  0  0  0  0
 63 64  1  0  0  0  0
 63 65  1  0  0  0  0
 64171  1  0  0  0  0
 64172  1  0  0  0  0
 64173  1  0  0  0  0
 65 66  1  0  0  0  0
 65 70  1  0  0  0  0
 65174  1  6  0  0  0
 66 67  1  0  0  0  0
 66175  1  0  0  0  0
 66176  1  0  0  0  0
 67 68  1  0  0  0  0
 67 69  1  0  0  0  0
 67177  1  0  0  0  0
 68178  1  0  0  0  0
 68179  1  0  0  0  0
 68180  1  0  0  0  0
 69181  1  0  0  0  0
 69182  1  0  0  0  0
 69183  1  0  0  0  0
 70 71  2  0  0  0  0
 70 72  1  0  0  0  0
 72 73  1  0  0  0  0
 72 74  1  0  0  0  0
 73184  1  0  0  0  0
 73185  1  0  0  0  0
 73186  1  0  0  0  0
 74 75  1  0  0  0  0
 74 79  1  0  0  0  0
 74187  1  1  0  0  0
 75 76  1  0  0  0  0
 75188  1  0  0  0  0
 75189  1  0  0  0  0
 76 77  1  0  0  0  0
 76 78  1  0  0  0  0
 76190  1  0  0  0  0
 77191  1  0  0  0  0
 77192  1  0  0  0  0
 77193  1  0  0  0  0
 78194  1  0  0  0  0
 78195  1  0  0  0  0
 78196  1  0  0  0  0
 79 80  2  0  0  0  0
 79 81  1  0  0  0  0
 81 82  1  0  0  0  0
 81 83  1  0  0  0  0
 82197  1  0  0  0  0
 82198  1  0  0  0  0
 82199  1  0  0  0  0
 83 84  1  0  0  0  0
 83 87  1  0  0  0  0
 83200  1  1  0  0  0
 84 85  1  0  0  0  0
 84 86  1  0  0  0  0
 84201  1  0  0  0  0
 85202  1  0  0  0  0
 85203  1  0  0  0  0
 85204  1  0  0  0  0
 86205  1  0  0  0  0
 86206  1  0  0  0  0
 86207  1  0  0  0  0
 87 88  2  0  0  0  0
 87 89  1  0  0  0  0
 89 90  1  0  0  0  0
 90208  1  0  0  0  0
 90209  1  0  0  0  0
 90210  1  0  0  0  0
M  END
>  <Energy>
1049.27

$$$$