31
 OpenBabel03292021443D

200200  0  0  1  0  0  0  0  0999 V2000
   10.5617   -1.5651   -1.9665 C   0  0  0  0  0  0  0  0  0  0  0  0
   11.0865   -0.8357   -3.2271 C   0  0  0  0  0  0  0  0  0  0  0  0
   10.7898    0.5718   -3.8624 C   0  0  0  0  0  0  0  0  0  0  0  0
    9.9617    1.6433   -3.6893 C   0  0  0  0  0  0  0  0  0  0  0  0
    9.9291    3.1008   -4.6074 C   0  0  0  0  0  0  0  0  0  0  0  0
    9.1207    4.5613   -5.3988 C   0  0  1  0  0  0  0  0  0  0  0  0
    8.2036    5.1296   -4.2619 C   0  0  0  0  0  0  0  0  0  0  0  0
    9.6429    5.7036   -6.8010 C   0  0  1  0  0  0  0  0  0  0  0  0
   10.1738    4.7454   -7.7495 O   0  0  0  0  0  0  0  0  0  0  0  0
   10.7333    7.2367   -6.9266 C   0  0  1  0  0  0  0  0  0  0  0  0
   10.7682    8.9500   -7.8196 C   0  0  0  0  0  0  0  0  0  0  0  0
    9.7454    9.6525   -7.7746 O   0  0  0  0  0  0  0  0  0  0  0  0
   12.0634    9.7237   -8.3664 N   0  0  0  0  0  0  0  0  0  0  0  0
   12.3808   11.3397   -9.1425 C   0  0  1  0  0  0  0  0  0  0  0  0
   12.5640   11.5284  -10.7800 C   0  0  0  0  0  0  0  0  0  0  0  0
   12.9749   12.9538  -11.3922 C   0  0  0  0  0  0  0  0  0  0  0  0
   13.2856   12.6298   -8.4857 C   0  0  0  0  0  0  0  0  0  0  0  0
   12.6802   13.3721   -7.7027 O   0  0  0  0  0  0  0  0  0  0  0  0
   14.5840   13.0879   -8.8012 N   0  0  0  0  0  0  0  0  0  0  0  0
   15.5343   12.5864   -9.7906 C   0  0  0  0  0  0  0  0  0  0  0  0
   15.2352   14.0466   -7.8475 C   0  0  0  0  0  0  0  0  0  0  0  0
   14.7719   15.3969   -7.2046 C   0  0  0  0  0  0  0  0  0  0  0  0
   14.7902   15.4320   -5.9640 O   0  0  0  0  0  0  0  0  0  0  0  0
   14.5636   16.5687   -7.9367 N   0  0  0  0  0  0  0  0  0  0  0  0
   14.6223   16.6375   -9.3835 C   0  0  0  0  0  0  0  0  0  0  0  0
   14.2885   17.8418   -7.1810 C   0  0  2  0  0  0  0  0  0  0  0  0
   12.8371   18.3338   -7.3967 C   0  0  0  0  0  0  0  0  0  0  0  0
   11.7694   17.3714   -6.8392 C   0  0  0  0  0  0  0  0  0  0  0  0
   11.7947   17.3407   -5.3187 C   0  0  0  0  0  0  0  0  0  0  0  0
   10.3755   17.7864   -7.3051 C   0  0  0  0  0  0  0  0  0  0  0  0
   15.2557   19.0453   -7.4370 C   0  0  0  0  0  0  0  0  0  0  0  0
   15.4722   19.4502   -8.5858 O   0  0  0  0  0  0  0  0  0  0  0  0
   15.8483   19.7554   -6.4158 N   0  0  0  0  0  0  0  0  0  0  0  0
   16.1420   19.4209   -4.9971 C   0  0  2  0  0  0  0  0  0  0  0  0
   16.7891   18.0115   -4.8599 C   0  0  0  0  0  0  0  0  0  0  0  0
   16.9658   17.5612   -3.4089 C   0  0  0  0  0  0  0  0  0  0  0  0
   18.1113   17.8973   -5.6231 C   0  0  0  0  0  0  0  0  0  0  0  0
   14.8558   19.5514   -4.1529 C   0  0  0  0  0  0  0  0  0  0  0  0
   13.9307   18.7776   -4.3990 O   0  0  0  0  0  0  0  0  0  0  0  0
   14.6483   20.5361   -3.2015 N   0  0  0  0  0  0  0  0  0  0  0  0
   15.7089   21.2716   -2.5266 C   0  0  0  0  0  0  0  0  0  0  0  0
   13.2705   20.6024   -2.6121 C   0  0  2  0  0  0  0  0  0  0  0  0
   12.6062   21.9806   -2.8043 C   0  0  0  0  0  0  0  0  0  0  0  0
   12.3176   22.3477   -4.2842 C   0  0  0  0  0  0  0  0  0  0  0  0
   11.4165   21.3475   -5.0120 C   0  0  0  0  0  0  0  0  0  0  0  0
   11.6556   23.7228   -4.3658 C   0  0  0  0  0  0  0  0  0  0  0  0
   13.2001   20.1155   -1.1315 C   0  0  0  0  0  0  0  0  0  0  0  0
   13.7947   20.7165   -0.2302 O   0  0  0  0  0  0  0  0  0  0  0  0
   12.5312   18.9755   -0.8150 N   0  0  0  0  0  0  0  0  0  0  0  0
   11.6394   18.1360   -1.6602 C   0  0  1  0  0  0  0  0  0  0  0  0
   11.6009   16.7294   -1.1181 C   0  0  0  0  0  0  0  0  0  0  0  0
   10.2677   18.8801   -1.8097 C   0  0  0  0  0  0  0  0  0  0  0  0
   10.1782   20.0955   -1.6678 O   0  0  0  0  0  0  0  0  0  0  0  0
    9.1778   18.2773   -2.3742 N   0  0  0  0  0  0  0  0  0  0  0  0
    8.2265   17.4178   -1.6247 C   0  0  2  0  0  0  0  0  0  0  0  0
    8.2408   17.6056   -0.0938 C   0  0  0  0  0  0  0  0  0  0  0  0
    7.7376   18.8868    0.2933 O   0  0  0  0  0  0  0  0  0  0  0  0
    8.3536   15.9309   -2.0054 C   0  0  0  0  0  0  0  0  0  0  0  0
    8.9656   15.1712   -1.2606 O   0  0  0  0  0  0  0  0  0  0  0  0
    7.8106   15.5559   -3.2460 N   0  0  0  0  0  0  0  0  0  0  0  0
    6.3665   15.6944   -3.3869 C   0  0  0  0  0  0  0  0  0  0  0  0
    8.3669   14.3924   -4.0110 C   0  0  1  0  0  0  0  0  0  0  0  0
    9.8141   14.5988   -4.4484 C   0  0  0  0  0  0  0  0  0  0  0  0
   10.5209   13.4333   -5.1537 C   0  0  0  0  0  0  0  0  0  0  0  0
   10.0816   13.3471   -6.6129 C   0  0  0  0  0  0  0  0  0  0  0  0
   12.0400   13.6001   -5.0194 C   0  0  0  0  0  0  0  0  0  0  0  0
    7.9000   13.0328   -3.4337 C   0  0  0  0  0  0  0  0  0  0  0  0
    6.9114   12.4965   -3.9414 O   0  0  0  0  0  0  0  0  0  0  0  0
    8.4663   12.5691   -2.2633 N   0  0  0  0  0  0  0  0  0  0  0  0
    9.8946   12.6861   -2.0041 C   0  0  0  0  0  0  0  0  0  0  0  0
    7.8036   11.4757   -1.5338 C   0  0  1  0  0  0  0  0  0  0  0  0
    6.3105   11.4636   -1.2998 C   0  0  0  0  0  0  0  0  0  0  0  0
    5.8789   10.2407   -0.4640 C   0  0  0  0  0  0  0  0  0  0  0  0
    6.4911   10.2303    0.9407 C   0  0  0  0  0  0  0  0  0  0  0  0
    4.3622   10.1492   -0.4142 C   0  0  0  0  0  0  0  0  0  0  0  0
    8.5206   10.1624   -1.8683 C   0  0  0  0  0  0  0  0  0  0  0  0
    9.4205    9.8685   -1.0572 O   0  0  0  0  0  0  0  0  0  0  0  0
    8.3547    9.4779   -3.0484 N   0  0  0  0  0  0  0  0  0  0  0  0
    7.0341    9.1563   -3.5735 C   0  0  0  0  0  0  0  0  0  0  0  0
    9.5783    9.0788   -3.8433 C   0  0  1  0  0  0  0  0  0  0  0  0
   10.8602    8.7822   -3.0119 C   0  0  0  0  0  0  0  0  0  0  0  0
   11.8127    9.9475   -2.7989 C   0  0  0  0  0  0  0  0  0  0  0  0
   10.6992    7.7061   -1.9269 C   0  0  0  0  0  0  0  0  0  0  0  0
    9.4744    8.0328   -5.0305 C   0  0  0  0  0  0  0  0  0  0  0  0
    8.4452    7.8254   -5.6266 O   0  0  0  0  0  0  0  0  0  0  0  0
   10.7557    7.5414   -5.5221 N   0  0  0  0  0  0  0  0  0  0  0  0
   11.4239    6.4320   -4.7584 C   0  0  0  0  0  0  0  0  0  0  0  0
   11.0817   -2.5427   -1.8912 H   0  0  0  0  0  0  0  0  0  0  0  0
    9.4984   -1.8171   -2.0049 H   0  0  0  0  0  0  0  0  0  0  0  0
   10.7945   -1.0536   -1.0284 H   0  0  0  0  0  0  0  0  0  0  0  0
   10.9163   -1.5621   -4.0368 H   0  0  0  0  0  0  0  0  0  0  0  0
   12.1779   -0.8475   -3.0783 H   0  0  0  0  0  0  0  0  0  0  0  0
   11.4873    0.6925   -4.6908 H   0  0  0  0  0  0  0  0  0  0  0  0
    9.2459    1.5829   -2.8590 H   0  0  0  0  0  0  0  0  0  0  0  0
   10.2518    3.6741   -3.7200 H   0  0  0  0  0  0  0  0  0  0  0  0
    8.8695    2.7556   -4.5916 H   0  0  0  0  0  0  0  0  0  0  0  0
    8.3937    3.9849   -6.0064 H   0  0  0  0  0  0  0  0  0  0  0  0
    8.7655    5.5792   -3.4424 H   0  0  0  0  0  0  0  0  0  0  0  0
    7.6379    4.3108   -3.7788 H   0  0  0  0  0  0  0  0  0  0  0  0
    7.4439    5.8206   -4.6216 H   0  0  0  0  0  0  0  0  0  0  0  0
    8.6770    6.0351   -7.1956 H   0  0  0  0  0  0  0  0  0  0  0  0
    9.5027    4.0397   -7.8062 H   0  0  0  0  0  0  0  0  0  0  0  0
   11.7149    6.8422   -7.2392 H   0  0  0  0  0  0  0  0  0  0  0  0
   12.8139    9.5963   -7.6977 H   0  0  0  0  0  0  0  0  0  0  0  0
   11.3579   11.7374   -9.0314 H   0  0  0  0  0  0  0  0  0  0  0  0
   11.6026   11.3143  -11.2600 H   0  0  0  0  0  0  0  0  0  0  0  0
   13.2899   10.8092  -11.1709 H   0  0  0  0  0  0  0  0  0  0  0  0
   12.8344   13.8162  -10.7295 H   0  0  0  0  0  0  0  0  0  0  0  0
   12.4245   13.1914  -12.3148 H   0  0  0  0  0  0  0  0  0  0  0  0
   14.0190   12.9739  -11.7404 H   0  0  0  0  0  0  0  0  0  0  0  0
   15.7265   13.3960  -10.5128 H   0  0  0  0  0  0  0  0  0  0  0  0
   15.1980   11.6888  -10.2964 H   0  0  0  0  0  0  0  0  0  0  0  0
   16.4997   12.3818   -9.3109 H   0  0  0  0  0  0  0  0  0  0  0  0
   16.2185   14.3155   -8.2685 H   0  0  0  0  0  0  0  0  0  0  0  0
   15.4696   13.4052   -6.9862 H   0  0  0  0  0  0  0  0  0  0  0  0
   14.2047   15.7246   -9.8115 H   0  0  0  0  0  0  0  0  0  0  0  0
   15.6659   16.7414   -9.6904 H   0  0  0  0  0  0  0  0  0  0  0  0
   14.0523   17.4876   -9.7592 H   0  0  0  0  0  0  0  0  0  0  0  0
   14.3799   17.5966   -6.1376 H   0  0  0  0  0  0  0  0  0  0  0  0
   12.7156   19.3196   -6.9279 H   0  0  0  0  0  0  0  0  0  0  0  0
   12.6530   18.5040   -8.4626 H   0  0  0  0  0  0  0  0  0  0  0  0
   11.9563   16.3603   -7.2175 H   0  0  0  0  0  0  0  0  0  0  0  0
   11.6986   18.3425   -4.9064 H   0  0  0  0  0  0  0  0  0  0  0  0
   12.6965   16.8586   -4.9346 H   0  0  0  0  0  0  0  0  0  0  0  0
   10.9601   16.8075   -4.8936 H   0  0  0  0  0  0  0  0  0  0  0  0
   10.1155   18.7857   -6.9411 H   0  0  0  0  0  0  0  0  0  0  0  0
    9.6221   17.0844   -6.9323 H   0  0  0  0  0  0  0  0  0  0  0  0
   10.3156   17.7882   -8.3972 H   0  0  0  0  0  0  0  0  0  0  0  0
   16.4101   20.5154   -6.8000 H   0  0  0  0  0  0  0  0  0  0  0  0
   16.8810   20.1629   -4.6847 H   0  0  0  0  0  0  0  0  0  0  0  0
   16.1313   17.2746   -5.3057 H   0  0  0  0  0  0  0  0  0  0  0  0
   17.6541   18.2104   -2.8621 H   0  0  0  0  0  0  0  0  0  0  0  0
   17.3574   16.5378   -3.3791 H   0  0  0  0  0  0  0  0  0  0  0  0
   16.0074   17.5437   -2.8792 H   0  0  0  0  0  0  0  0  0  0  0  0
   18.8831   18.5415   -5.1928 H   0  0  0  0  0  0  0  0  0  0  0  0
   17.9890   18.1640   -6.6780 H   0  0  0  0  0  0  0  0  0  0  0  0
   18.4740   16.8631   -5.5983 H   0  0  0  0  0  0  0  0  0  0  0  0
   16.6486   21.2492   -3.0734 H   0  0  0  0  0  0  0  0  0  0  0  0
   15.8921   20.8152   -1.5507 H   0  0  0  0  0  0  0  0  0  0  0  0
   15.4108   22.3143   -2.3980 H   0  0  0  0  0  0  0  0  0  0  0  0
   12.6274   19.9278   -3.1606 H   0  0  0  0  0  0  0  0  0  0  0  0
   11.6604   22.0081   -2.2479 H   0  0  0  0  0  0  0  0  0  0  0  0
   13.2279   22.7643   -2.3564 H   0  0  0  0  0  0  0  0  0  0  0  0
   13.2715   22.3951   -4.8239 H   0  0  0  0  0  0  0  0  0  0  0  0
   10.4522   21.2229   -4.5088 H   0  0  0  0  0  0  0  0  0  0  0  0
   11.8941   20.3752   -5.0842 H   0  0  0  0  0  0  0  0  0  0  0  0
   11.2243   21.6689   -6.0419 H   0  0  0  0  0  0  0  0  0  0  0  0
   10.6940   23.7275   -3.8403 H   0  0  0  0  0  0  0  0  0  0  0  0
   11.4677   23.9997   -5.4096 H   0  0  0  0  0  0  0  0  0  0  0  0
   12.2951   24.4916   -3.9229 H   0  0  0  0  0  0  0  0  0  0  0  0
   12.4912   18.8091    0.1894 H   0  0  0  0  0  0  0  0  0  0  0  0
   12.0761   18.0847   -2.6497 H   0  0  0  0  0  0  0  0  0  0  0  0
   11.1400   16.6699   -0.1270 H   0  0  0  0  0  0  0  0  0  0  0  0
   12.6083   16.3096   -1.0274 H   0  0  0  0  0  0  0  0  0  0  0  0
   11.0576   16.0755   -1.8021 H   0  0  0  0  0  0  0  0  0  0  0  0
    8.6413   19.0635   -2.7235 H   0  0  0  0  0  0  0  0  0  0  0  0
    7.2491   17.7675   -1.9595 H   0  0  0  0  0  0  0  0  0  0  0  0
    7.6196   16.8485    0.3957 H   0  0  0  0  0  0  0  0  0  0  0  0
    9.2409   17.5204    0.3299 H   0  0  0  0  0  0  0  0  0  0  0  0
    7.0094   19.1441   -0.2968 H   0  0  0  0  0  0  0  0  0  0  0  0
    5.9872   16.6051   -2.9254 H   0  0  0  0  0  0  0  0  0  0  0  0
    5.8862   14.8498   -2.8826 H   0  0  0  0  0  0  0  0  0  0  0  0
    6.0979   15.6996   -4.4458 H   0  0  0  0  0  0  0  0  0  0  0  0
    7.8317   14.4389   -4.9720 H   0  0  0  0  0  0  0  0  0  0  0  0
   10.4279   14.9866   -3.6337 H   0  0  0  0  0  0  0  0  0  0  0  0
    9.7616   15.4145   -5.1750 H   0  0  0  0  0  0  0  0  0  0  0  0
   10.2645   12.4778   -4.6956 H   0  0  0  0  0  0  0  0  0  0  0  0
   10.3170   14.2654   -7.1629 H   0  0  0  0  0  0  0  0  0  0  0  0
    9.0060   13.1705   -6.6940 H   0  0  0  0  0  0  0  0  0  0  0  0
   10.5732   12.5059   -7.1030 H   0  0  0  0  0  0  0  0  0  0  0  0
   12.3787   14.5272   -5.4897 H   0  0  0  0  0  0  0  0  0  0  0  0
   12.5745   12.7605   -5.4741 H   0  0  0  0  0  0  0  0  0  0  0  0
   12.3519   13.6314   -3.9709 H   0  0  0  0  0  0  0  0  0  0  0  0
   10.3129   13.6631   -2.1973 H   0  0  0  0  0  0  0  0  0  0  0  0
   10.3941   12.0026   -2.6838 H   0  0  0  0  0  0  0  0  0  0  0  0
   10.1435   12.4208   -0.9694 H   0  0  0  0  0  0  0  0  0  0  0  0
    8.1532   11.6978   -0.4971 H   0  0  0  0  0  0  0  0  0  0  0  0
    5.7374   11.4946   -2.2313 H   0  0  0  0  0  0  0  0  0  0  0  0
    6.0209   12.3951   -0.7686 H   0  0  0  0  0  0  0  0  0  0  0  0
    6.2262    9.3223   -0.9542 H   0  0  0  0  0  0  0  0  0  0  0  0
    6.2669   11.1536    1.4829 H   0  0  0  0  0  0  0  0  0  0  0  0
    7.5807   10.1176    0.9055 H   0  0  0  0  0  0  0  0  0  0  0  0
    6.1158    9.3822    1.5225 H   0  0  0  0  0  0  0  0  0  0  0  0
    3.9229   11.0601    0.0032 H   0  0  0  0  0  0  0  0  0  0  0  0
    4.0429    9.2948    0.1906 H   0  0  0  0  0  0  0  0  0  0  0  0
    3.9637   10.0071   -1.4247 H   0  0  0  0  0  0  0  0  0  0  0  0
    6.2477    9.7718   -3.1452 H   0  0  0  0  0  0  0  0  0  0  0  0
    6.8009    8.1218   -3.2927 H   0  0  0  0  0  0  0  0  0  0  0  0
    6.9636    9.2852   -4.6567 H   0  0  0  0  0  0  0  0  0  0  0  0
    9.7576   10.0047   -4.4178 H   0  0  0  0  0  0  0  0  0  0  0  0
   11.5276    8.2995   -3.6904 H   0  0  0  0  0  0  0  0  0  0  0  0
   11.6782   10.4628   -1.8554 H   0  0  0  0  0  0  0  0  0  0  0  0
   11.7329   10.6487   -3.6396 H   0  0  0  0  0  0  0  0  0  0  0  0
   12.8467    9.5828   -2.8365 H   0  0  0  0  0  0  0  0  0  0  0  0
   10.4250    8.0656   -0.9311 H   0  0  0  0  0  0  0  0  0  0  0  0
   11.6075    7.1464   -1.8092 H   0  0  0  0  0  0  0  0  0  0  0  0
    9.8979    7.0024   -2.2130 H   0  0  0  0  0  0  0  0  0  0  0  0
   12.3813    6.7457   -4.3969 H   0  0  0  0  0  0  0  0  0  0  0  0
   11.6127    5.5656   -5.3954 H   0  0  0  0  0  0  0  0  0  0  0  0
   10.7837    6.0927   -3.9404 H   0  0  0  0  0  0  0  0  0  0  0  0
  1  2  1  0  0  0  0
  1 88  1  0  0  0  0
  1 89  1  0  0  0  0
  1 90  1  0  0  0  0
  2  3  1  0  0  0  0
  2 91  1  0  0  0  0
  2 92  1  0  0  0  0
  3  4  2  0  0  0  0
  3 93  1  0  0  0  0
  4  5  1  0  0  0  0
  4 94  1  0  0  0  0
  5  6  1  0  0  0  0
  5 95  1  0  0  0  0
  5 96  1  0  0  0  0
  6  7  1  0  0  0  0
  6  8  1  0  0  0  0
  6 97  1  6  0  0  0
  7 98  1  0  0  0  0
  7 99  1  0  0  0  0
  7100  1  0  0  0  0
  8  9  1  0  0  0  0
  8 10  1  0  0  0  0
  8101  1  1  0  0  0
  9102  1  0  0  0  0
 10 11  1  0  0  0  0
 10 86  1  0  0  0  0
 10103  1  6  0  0  0
 11 12  2  0  0  0  0
 11 13  1  0  0  0  0
 13 14  1  0  0  0  0
 13104  1  0  0  0  0
 14 15  1  0  0  0  0
 14 17  1  0  0  0  0
 14105  1  6  0  0  0
 15 16  1  0  0  0  0
 15106  1  0  0  0  0
 15107  1  0  0  0  0
 16108  1  0  0  0  0
 16109  1  0  0  0  0
 16110  1  0  0  0  0
 17 18  2  0  0  0  0
 17 19  1  0  0  0  0
 19 20  1  0  0  0  0
 19 21  1  0  0  0  0
 20111  1  0  0  0  0
 20112  1  0  0  0  0
 20113  1  0  0  0  0
 21 22  1  0  0  0  0
 21114  1  0  0  0  0
 21115  1  0  0  0  0
 22 23  2  0  0  0  0
 22 24  1  0  0  0  0
 24 25  1  0  0  0  0
 24 26  1  0  0  0  0
 25116  1  0  0  0  0
 25117  1  0  0  0  0
 25118  1  0  0  0  0
 26 31  1  0  0  0  0
 26 27  1  0  0  0  0
 26119  1  1  0  0  0
 27 28  1  0  0  0  0
 27120  1  0  0  0  0
 27121  1  0  0  0  0
 28 29  1  0  0  0  0
 28 30  1  0  0  0  0
 28122  1  0  0  0  0
 29123  1  0  0  0  0
 29124  1  0  0  0  0
 29125  1  0  0  0  0
 30126  1  0  0  0  0
 30127  1  0  0  0  0
 30128  1  0  0  0  0
 31 32  2  0  0  0  0
 31 33  1  0  0  0  0
 33 34  1  0  0  0  0
 33129  1  0  0  0  0
 34 38  1  0  0  0  0
 34 35  1  0  0  0  0
 34130  1  1  0  0  0
 35 36  1  0  0  0  0
 35 37  1  0  0  0  0
 35131  1  0  0  0  0
 36132  1  0  0  0  0
 36133  1  0  0  0  0
 36134  1  0  0  0  0
 37135  1  0  0  0  0
 37136  1  0  0  0  0
 37137  1  0  0  0  0
 38 39  2  0  0  0  0
 38 40  1  0  0  0  0
 40 41  1  0  0  0  0
 40 42  1  0  0  0  0
 41138  1  0  0  0  0
 41139  1  0  0  0  0
 41140  1  0  0  0  0
 42 47  1  0  0  0  0
 42 43  1  0  0  0  0
 42141  1  6  0  0  0
 43 44  1  0  0  0  0
 43142  1  0  0  0  0
 43143  1  0  0  0  0
 44 45  1  0  0  0  0
 44 46  1  0  0  0  0
 44144  1  0  0  0  0
 45145  1  0  0  0  0
 45146  1  0  0  0  0
 45147  1  0  0  0  0
 46148  1  0  0  0  0
 46149  1  0  0  0  0
 46150  1  0  0  0  0
 47 48  2  0  0  0  0
 47 49  1  0  0  0  0
 49 50  1  0  0  0  0
 49151  1  0  0  0  0
 50 51  1  0  0  0  0
 50 52  1  0  0  0  0
 50152  1  6  0  0  0
 51153  1  0  0  0  0
 51154  1  0  0  0  0
 51155  1  0  0  0  0
 52 53  2  0  0  0  0
 52 54  1  0  0  0  0
 54 55  1  0  0  0  0
 54156  1  0  0  0  0
 55 58  1  0  0  0  0
 55 56  1  0  0  0  0
 55157  1  6  0  0  0
 56 57  1  0  0  0  0
 56158  1  0  0  0  0
 56159  1  0  0  0  0
 57160  1  0  0  0  0
 58 59  2  0  0  0  0
 58 60  1  0  0  0  0
 60 61  1  0  0  0  0
 60 62  1  0  0  0  0
 61161  1  0  0  0  0
 61162  1  0  0  0  0
 61163  1  0  0  0  0
 62 63  1  0  0  0  0
 62 67  1  0  0  0  0
 62164  1  6  0  0  0
 63 64  1  0  0  0  0
 63165  1  0  0  0  0
 63166  1  0  0  0  0
 64 65  1  0  0  0  0
 64 66  1  0  0  0  0
 64167  1  0  0  0  0
 65168  1  0  0  0  0
 65169  1  0  0  0  0
 65170  1  0  0  0  0
 66171  1  0  0  0  0
 66172  1  0  0  0  0
 66173  1  0  0  0  0
 67 68  2  0  0  0  0
 67 69  1  0  0  0  0
 69 70  1  0  0  0  0
 69 71  1  0  0  0  0
 70174  1  0  0  0  0
 70175  1  0  0  0  0
 70176  1  0  0  0  0
 71 72  1  0  0  0  0
 71 76  1  0  0  0  0
 71177  1  1  0  0  0
 72 73  1  0  0  0  0
 72178  1  0  0  0  0
 72179  1  0  0  0  0
 73 74  1  0  0  0  0
 73 75  1  0  0  0  0
 73180  1  0  0  0  0
 74181  1  0  0  0  0
 74182  1  0  0  0  0
 74183  1  0  0  0  0
 75184  1  0  0  0  0
 75185  1  0  0  0  0
 75186  1  0  0  0  0
 76 77  2  0  0  0  0
 76 78  1  0  0  0  0
 78 79  1  0  0  0  0
 78 80  1  0  0  0  0
 79187  1  0  0  0  0
 79188  1  0  0  0  0
 79189  1  0  0  0  0
 80 81  1  0  0  0  0
 80 84  1  0  0  0  0
 80190  1  6  0  0  0
 81 82  1  0  0  0  0
 81 83  1  0  0  0  0
 81191  1  0  0  0  0
 82192  1  0  0  0  0
 82193  1  0  0  0  0
 82194  1  0  0  0  0
 83195  1  0  0  0  0
 83196  1  0  0  0  0
 83197  1  0  0  0  0
 84 85  2  0  0  0  0
 84 86  1  0  0  0  0
 86 87  1  0  0  0  0
 87198  1  0  0  0  0
 87199  1  0  0  0  0
 87200  1  0  0  0  0
M  END
>  <Energy>
841.13

$$$$