25223200
  -OEChem-03242010093D

 83 88  0     1  0  0  0  0  0999 V2000
   12.3674   -1.8790   -2.1954 O   0  0  0  0  0  0  0  0  0  0  0  0
   13.6104   -0.9230    0.0978 O   0  0  0  0  0  0  0  0  0  0  0  0
   -1.2975   -0.6223   -0.3400 O   0  0  0  0  0  0  0  0  0  0  0  0
   -6.5817    4.2525   -0.3608 O   0  0  0  0  0  0  0  0  0  0  0  0
   -7.5908    2.3727   -1.2253 O   0  0  0  0  0  0  0  0  0  0  0  0
   -5.4030   -1.9740    0.2677 O   0  0  0  0  0  0  0  0  0  0  0  0
    7.2991    0.1123    0.5967 N   0  0  2  0  0  0  0  0  0  0  0  0
   -0.4285    1.4400    0.3808 N   0  0  0  0  0  0  0  0  0  0  0  0
   -6.3037    0.1394   -0.2304 N   0  0  0  0  0  0  0  0  0  0  0  0
   -8.7480   -0.9762   -0.0967 N   0  0  0  0  0  0  0  0  0  0  0  0
   -9.1573   -3.6696    0.4491 N   0  0  0  0  0  0  0  0  0  0  0  0
    7.9555    1.2148    1.3101 C   0  0  0  0  0  0  0  0  0  0  0  0
    8.0313   -0.1988   -0.6438 C   0  0  0  0  0  0  0  0  0  0  0  0
    9.3385    0.7701    1.7966 C   0  0  0  0  0  0  0  0  0  0  0  0
    9.5115   -0.4153   -0.4265 C   0  0  0  0  0  0  0  0  0  0  0  0
   10.1454    0.0888    0.7221 C   0  0  0  0  0  0  0  0  0  0  0  0
    5.9069    0.4443    0.2964 C   0  0  0  0  0  0  0  0  0  0  0  0
    5.0183    0.2422    1.5242 C   0  0  0  0  0  0  0  0  0  0  0  0
   10.2735   -1.0663   -1.4060 C   0  0  0  0  0  0  0  0  0  0  0  0
   11.5235   -0.0978    0.8917 C   0  0  0  0  0  0  0  0  0  0  0  0
   11.6468   -1.2384   -1.2329 C   0  0  0  0  0  0  0  0  0  0  0  0
   12.2705   -0.7566   -0.0843 C   0  0  0  0  0  0  0  0  0  0  0  0
    3.5757    0.5601    1.2218 C   0  0  0  0  0  0  0  0  0  0  0  0
    3.0931    1.8561    1.4042 C   0  0  0  0  0  0  0  0  0  0  0  0
    2.7237   -0.4426    0.7586 C   0  0  0  0  0  0  0  0  0  0  0  0
    1.7586    2.1494    1.1234 C   0  0  0  0  0  0  0  0  0  0  0  0
    1.3891   -0.1493    0.4780 C   0  0  0  0  0  0  0  0  0  0  0  0
    0.9066    1.1467    0.6604 C   0  0  0  0  0  0  0  0  0  0  0  0
   12.9216   -1.0735   -3.2336 C   0  0  0  0  0  0  0  0  0  0  0  0
   14.0310   -2.1103    0.7668 C   0  0  0  0  0  0  0  0  0  0  0  0
   -1.4229    0.5711   -0.0874 C   0  0  0  0  0  0  0  0  0  0  0  0
   -2.7682    1.1785   -0.2642 C   0  0  0  0  0  0  0  0  0  0  0  0
   -3.9105    0.3840   -0.1679 C   0  0  0  0  0  0  0  0  0  0  0  0
   -5.1729    0.9544   -0.3314 C   0  0  0  0  0  0  0  0  0  0  0  0
   -2.8880    2.5436   -0.5243 C   0  0  0  0  0  0  0  0  0  0  0  0
   -5.2928    2.3196   -0.5917 C   0  0  0  0  0  0  0  0  0  0  0  0
   -4.1504    3.1141   -0.6881 C   0  0  0  0  0  0  0  0  0  0  0  0
   -6.5964    2.9474   -0.7676 C   0  0  0  0  0  0  0  0  0  0  0  0
   -6.3543   -1.2303    0.0533 C   0  0  0  0  0  0  0  0  0  0  0  0
   -7.7193   -1.8151    0.1211 C   0  0  0  0  0  0  0  0  0  0  0  0
   -9.9920   -1.4836   -0.0422 C   0  0  0  0  0  0  0  0  0  0  0  0
  -10.1993   -2.8475    0.2340 C   0  0  0  0  0  0  0  0  0  0  0  0
   -7.9210   -3.1427    0.3901 C   0  0  0  0  0  0  0  0  0  0  0  0
  -11.0951   -0.6611   -0.2595 C   0  0  0  0  0  0  0  0  0  0  0  0
  -11.5019   -3.3385    0.2827 C   0  0  0  0  0  0  0  0  0  0  0  0
  -12.3945   -1.1625   -0.2086 C   0  0  0  0  0  0  0  0  0  0  0  0
  -12.5988   -2.5070    0.0637 C   0  0  0  0  0  0  0  0  0  0  0  0
   -7.8092    4.9790   -0.4828 C   0  0  0  0  0  0  0  0  0  0  0  0
    7.3853    1.5301    2.1902 H   0  0  0  0  0  0  0  0  0  0  0  0
    8.0518    2.0953    0.6597 H   0  0  0  0  0  0  0  0  0  0  0  0
    7.6104   -1.1155   -1.0757 H   0  0  0  0  0  0  0  0  0  0  0  0
    7.9125    0.6096   -1.3778 H   0  0  0  0  0  0  0  0  0  0  0  0
    9.2239    0.0687    2.6329 H   0  0  0  0  0  0  0  0  0  0  0  0
    9.8811    1.6479    2.1676 H   0  0  0  0  0  0  0  0  0  0  0  0
    5.8132    1.4645   -0.1000 H   0  0  0  0  0  0  0  0  0  0  0  0
    5.5308   -0.2226   -0.4919 H   0  0  0  0  0  0  0  0  0  0  0  0
    5.3404    0.8669    2.3655 H   0  0  0  0  0  0  0  0  0  0  0  0
    5.0946   -0.7941    1.8799 H   0  0  0  0  0  0  0  0  0  0  0  0
    9.7929   -1.4402   -2.3073 H   0  0  0  0  0  0  0  0  0  0  0  0
   12.0148    0.2733    1.7883 H   0  0  0  0  0  0  0  0  0  0  0  0
    3.7480    2.6460    1.7623 H   0  0  0  0  0  0  0  0  0  0  0  0
    3.0897   -1.4553    0.6111 H   0  0  0  0  0  0  0  0  0  0  0  0
    1.3967    3.1640    1.2696 H   0  0  0  0  0  0  0  0  0  0  0  0
    0.7938   -0.9787    0.1234 H   0  0  0  0  0  0  0  0  0  0  0  0
   13.4713   -1.7263   -3.9172 H   0  0  0  0  0  0  0  0  0  0  0  0
   13.6163   -0.3356   -2.8199 H   0  0  0  0  0  0  0  0  0  0  0  0
   12.1273   -0.5696   -3.7934 H   0  0  0  0  0  0  0  0  0  0  0  0
   15.1225   -2.1002    0.8289 H   0  0  0  0  0  0  0  0  0  0  0  0
   13.7204   -2.9985    0.2075 H   0  0  0  0  0  0  0  0  0  0  0  0
   13.6228   -2.1434    1.7820 H   0  0  0  0  0  0  0  0  0  0  0  0
   -0.6892    2.3990    0.5913 H   0  0  0  0  0  0  0  0  0  0  0  0
   -3.7509   -0.6636    0.0377 H   0  0  0  0  0  0  0  0  0  0  0  0
   -2.0269    3.1931   -0.6490 H   0  0  0  0  0  0  0  0  0  0  0  0
   -4.2075    4.1761   -0.9127 H   0  0  0  0  0  0  0  0  0  0  0  0
   -7.2000    0.5999   -0.3649 H   0  0  0  0  0  0  0  0  0  0  0  0
   -7.1138   -3.8423    0.5691 H   0  0  0  0  0  0  0  0  0  0  0  0
  -10.9489    0.3957   -0.4741 H   0  0  0  0  0  0  0  0  0  0  0  0
  -11.6768   -4.3913    0.4955 H   0  0  0  0  0  0  0  0  0  0  0  0
  -13.2402   -0.5039   -0.3811 H   0  0  0  0  0  0  0  0  0  0  0  0
  -13.6060   -2.9102    0.1062 H   0  0  0  0  0  0  0  0  0  0  0  0
   -7.6408    5.9958   -0.1185 H   0  0  0  0  0  0  0  0  0  0  0  0
   -8.5871    4.5101    0.1269 H   0  0  0  0  0  0  0  0  0  0  0  0
   -8.1164    5.0265   -1.5317 H   0  0  0  0  0  0  0  0  0  0  0  0
  1 21  1  0  0  0  0
  1 29  1  0  0  0  0
  2 22  1  0  0  0  0
  2 30  1  0  0  0  0
  3 31  2  0  0  0  0
  4 38  1  0  0  0  0
  4 48  1  0  0  0  0
  5 38  2  0  0  0  0
  6 39  2  0  0  0  0
  7 12  1  0  0  0  0
  7 13  1  0  0  0  0
  7 17  1  0  0  0  0
  8 28  1  0  0  0  0
  8 31  1  0  0  0  0
  8 71  1  0  0  0  0
  9 34  1  0  0  0  0
  9 39  1  0  0  0  0
  9 75  1  0  0  0  0
 10 40  2  0  0  0  0
 10 41  1  0  0  0  0
 11 42  1  0  0  0  0
 11 43  2  0  0  0  0
 12 14  1  0  0  0  0
 12 49  1  0  0  0  0
 12 50  1  0  0  0  0
 13 15  1  0  0  0  0
 13 51  1  0  0  0  0
 13 52  1  0  0  0  0
 14 16  1  0  0  0  0
 14 53  1  0  0  0  0
 14 54  1  0  0  0  0
 15 16  1  0  0  0  0
 15 19  2  0  0  0  0
 16 20  2  0  0  0  0
 17 18  1  0  0  0  0
 17 55  1  0  0  0  0
 17 56  1  0  0  0  0
 18 23  1  0  0  0  0
 18 57  1  0  0  0  0
 18 58  1  0  0  0  0
 19 21  1  0  0  0  0
 19 59  1  0  0  0  0
 20 22  1  0  0  0  0
 20 60  1  0  0  0  0
 21 22  2  0  0  0  0
 23 24  2  0  0  0  0
 23 25  1  0  0  0  0
 24 26  1  0  0  0  0
 24 61  1  0  0  0  0
 25 27  2  0  0  0  0
 25 62  1  0  0  0  0
 26 28  2  0  0  0  0
 26 63  1  0  0  0  0
 27 28  1  0  0  0  0
 27 64  1  0  0  0  0
 29 65  1  0  0  0  0
 29 66  1  0  0  0  0
 29 67  1  0  0  0  0
 30 68  1  0  0  0  0
 30 69  1  0  0  0  0
 30 70  1  0  0  0  0
 31 32  1  0  0  0  0
 32 33  2  0  0  0  0
 32 35  1  0  0  0  0
 33 34  1  0  0  0  0
 33 72  1  0  0  0  0
 34 36  2  0  0  0  0
 35 37  2  0  0  0  0
 35 73  1  0  0  0  0
 36 37  1  0  0  0  0
 36 38  1  0  0  0  0
 37 74  1  0  0  0  0
 39 40  1  0  0  0  0
 40 43  1  0  0  0  0
 41 42  1  0  0  0  0
 41 44  2  0  0  0  0
 42 45  2  0  0  0  0
 43 76  1  0  0  0  0
 44 46  1  0  0  0  0
 44 77  1  0  0  0  0
 45 47  1  0  0  0  0
 45 78  1  0  0  0  0
 46 47  2  0  0  0  0
 46 79  1  0  0  0  0
 47 80  1  0  0  0  0
 48 81  1  0  0  0  0
 48 82  1  0  0  0  0
 48 83  1  0  0  0  0
M  END
> <PUBCHEM_COMPOUND_CID>
25223200

> <PUBCHEM_CONFORMER_RMSD>
1.4

> <PUBCHEM_CONFORMER_DIVERSEORDER>
2
38
10
13
16
40
43
57
59
31
54
34
56
39
36
52
11
6
24
32
17
27
61
48
15
60
25
62
47
29
18
46
41
49
28
22
37
53
33
30
55
44
19
58
4
51
5
20
26
14
42
50
45
12
35
21
7
9
8
1
3
23

> <PUBCHEM_MMFF94_PARTIAL_CHARGES>
64
1 -0.36
10 -0.62
11 -0.62
12 0.27
13 0.41
14 0.14
15 -0.14
16 -0.14
17 0.27
18 0.14
19 -0.15
2 -0.36
20 -0.15
21 0.08
22 0.08
23 -0.14
24 -0.15
25 -0.15
26 -0.15
27 -0.15
28 0.12
29 0.28
3 -0.57
30 0.28
31 0.54
32 0.09
33 -0.15
34 0.12
35 -0.15
36 0.09
37 -0.15
38 0.63
39 0.54
4 -0.43
40 0.4
41 0.31
42 0.31
43 0.16
44 -0.15
45 -0.15
46 -0.15
47 -0.15
48 0.28
5 -0.57
59 0.15
6 -0.57
60 0.15
61 0.15
62 0.15
63 0.15
64 0.15
7 -0.81
71 0.37
72 0.15
73 0.15
74 0.15
75 0.37
76 0.15
77 0.15
78 0.15
79 0.15
8 -0.55
80 0.15
9 -0.55

> <PUBCHEM_EFFECTIVE_ROTOR_COUNT>
13.8

> <PUBCHEM_PHARMACOPHORE_FEATURES>
16
1 1 acceptor
1 10 acceptor
1 11 acceptor
1 2 acceptor
1 3 acceptor
1 5 acceptor
1 6 acceptor
1 7 cation
1 8 donor
1 9 donor
6 10 11 40 41 42 43 rings
6 15 16 19 20 21 22 rings
6 23 24 25 26 27 28 rings
6 32 33 34 35 36 37 rings
6 41 42 44 45 46 47 rings
6 7 12 13 14 15 16 rings

> <PUBCHEM_HEAVY_ATOM_COUNT>
48

> <PUBCHEM_ATOM_DEF_STEREO_COUNT>
0

> <PUBCHEM_ATOM_UDEF_STEREO_COUNT>
0

> <PUBCHEM_BOND_DEF_STEREO_COUNT>
0

> <PUBCHEM_BOND_UDEF_STEREO_COUNT>
0

> <PUBCHEM_ISOTOPIC_ATOM_COUNT>
0

> <PUBCHEM_COMPONENT_COUNT>
1

> <PUBCHEM_CACTVS_TAUTO_COUNT>
6

> <PUBCHEM_CONFORMER_ID>
0180E02000000002

> <PUBCHEM_MMFF94_ENERGY>
175.4813

> <PUBCHEM_FEATURE_SELFOVERLAP>
81.271

> <PUBCHEM_SHAPE_FINGERPRINT>
11146346 171 18342737433591109200
12013929 94 18409448094040518651
12089408 11 17530961355370584616
12539745 222 18273216405480834705
15065858 18 18343860005979673416
15247644 1 18272370910297223999
20105231 36 18343584053592199658
21057603 192 18342737387871651753
21792961 116 17917707998761170921
3092352 35 17894907418252797466
44280117 145 18187642471567965781
44389302 135 17988645233300146439
5028188 123 18260830371410424100
54728670 133 16128105456244643585
636775 8 18335701659037975747

> <PUBCHEM_SHAPE_MULTIPOLES>
927.7
68.58
4.12
1.43
106.48
2.65
-0.69
-57.79
-14.22
-18.17
-0.57
6.42
-0.11
5.86

> <PUBCHEM_SHAPE_SELFOVERLAP>
2033.785

> <PUBCHEM_SHAPE_VOLUME>
500.2

> <PUBCHEM_COORDINATE_TYPE>
2
5
10

$$$$