127045210
  -OEChem-03242010103D

 56 59  0     0  0  0  0  0  0999 V2000
    4.6950    2.2272   -2.3942 O   0  0  0  0  0  0  0  0  0  0  0  0
    6.9136    2.5267   -0.7470 O   0  0  0  0  0  0  0  0  0  0  0  0
   -3.5154   -3.4635   -1.5236 O   0  0  0  0  0  0  0  0  0  0  0  0
   -7.5023    3.6176    0.7550 O   0  0  0  0  0  0  0  0  0  0  0  0
    1.6162   -0.9505    0.0954 N   0  0  0  0  0  0  0  0  0  0  0  0
    2.8148   -1.4128    2.0664 N   0  0  0  0  0  0  0  0  0  0  0  0
    4.9752   -0.4181    2.4539 N   0  0  0  0  0  0  0  0  0  0  0  0
    3.7857    0.0797    0.4319 C   0  0  0  0  0  0  0  0  0  0  0  0
    2.7727   -0.7573    0.8913 C   0  0  0  0  0  0  0  0  0  0  0  0
    4.9008    0.2220    1.2738 C   0  0  0  0  0  0  0  0  0  0  0  0
    3.7188    0.7540   -0.7998 C   0  0  0  0  0  0  0  0  0  0  0  0
    0.7333   -2.0329   -0.0454 C   0  0  0  0  0  0  0  0  0  0  0  0
    4.7668    1.5768   -1.2005 C   0  0  0  0  0  0  0  0  0  0  0  0
    5.9352    1.0518    0.8480 C   0  0  0  0  0  0  0  0  0  0  0  0
    5.8760    1.7256   -0.3754 C   0  0  0  0  0  0  0  0  0  0  0  0
   -0.6035   -1.8041   -0.3710 C   0  0  0  0  0  0  0  0  0  0  0  0
   -1.4808   -2.8794   -0.5116 C   0  0  0  0  0  0  0  0  0  0  0  0
    1.1930   -3.3368    0.1394 C   0  0  0  0  0  0  0  0  0  0  0  0
   -1.0213   -4.1834   -0.3265 C   0  0  0  0  0  0  0  0  0  0  0  0
    0.3155   -4.4120   -0.0010 C   0  0  0  0  0  0  0  0  0  0  0  0
    3.9284   -1.2006    2.7861 C   0  0  0  0  0  0  0  0  0  0  0  0
   -2.8747   -2.6410   -0.8518 C   0  0  0  0  0  0  0  0  0  0  0  0
   -3.5168   -1.3596   -0.3996 C   0  0  0  0  0  0  0  0  0  0  0  0
   -5.5008    0.1472   -0.3309 C   0  0  0  0  0  0  0  0  0  0  0  0
   -4.7913   -1.0859   -0.7149 C   0  0  0  0  0  0  0  0  0  0  0  0
   -5.0285    0.9225    0.7282 C   0  0  0  0  0  0  0  0  0  0  0  0
   -6.6455    0.5385   -1.0254 C   0  0  0  0  0  0  0  0  0  0  0  0
    3.5211    2.0177   -3.1777 C   0  0  0  0  0  0  0  0  0  0  0  0
    6.8487    3.8956   -0.3516 C   0  0  0  0  0  0  0  0  0  0  0  0
   -6.8458    2.4799    0.3985 C   0  0  0  0  0  0  0  0  0  0  0  0
   -5.7010    2.0887    1.0930 C   0  0  0  0  0  0  0  0  0  0  0  0
   -7.3180    1.7047   -0.6607 C   0  0  0  0  0  0  0  0  0  0  0  0
   -6.9650    4.3617    1.8476 C   0  0  0  0  0  0  0  0  0  0  0  0
    2.8442    0.6046   -1.4208 H   0  0  0  0  0  0  0  0  0  0  0  0
    1.2448   -0.0803   -0.2758 H   0  0  0  0  0  0  0  0  0  0  0  0
    6.8122    1.1798    1.4808 H   0  0  0  0  0  0  0  0  0  0  0  0
   -0.9233   -0.7803   -0.5453 H   0  0  0  0  0  0  0  0  0  0  0  0
    2.2326   -3.5424    0.3796 H   0  0  0  0  0  0  0  0  0  0  0  0
   -1.6909   -5.0335   -0.4285 H   0  0  0  0  0  0  0  0  0  0  0  0
    0.6738   -5.4275    0.1408 H   0  0  0  0  0  0  0  0  0  0  0  0
    3.9945   -1.7136    3.7378 H   0  0  0  0  0  0  0  0  0  0  0  0
   -2.9228   -0.6844    0.2016 H   0  0  0  0  0  0  0  0  0  0  0  0
   -5.3663   -1.7812   -1.3217 H   0  0  0  0  0  0  0  0  0  0  0  0
   -4.1557    0.6471    1.3124 H   0  0  0  0  0  0  0  0  0  0  0  0
   -7.0275   -0.0528   -1.8540 H   0  0  0  0  0  0  0  0  0  0  0  0
    3.6337    2.6130   -4.0899 H   0  0  0  0  0  0  0  0  0  0  0  0
    2.6239    2.3862   -2.6685 H   0  0  0  0  0  0  0  0  0  0  0  0
    3.4259    0.9727   -3.4918 H   0  0  0  0  0  0  0  0  0  0  0  0
    7.7409    4.4035   -0.7277 H   0  0  0  0  0  0  0  0  0  0  0  0
    6.8323    3.9789    0.7398 H   0  0  0  0  0  0  0  0  0  0  0  0
    5.9645    4.3789   -0.7789 H   0  0  0  0  0  0  0  0  0  0  0  0
   -5.2833    2.6411    1.9279 H   0  0  0  0  0  0  0  0  0  0  0  0
   -8.2092    2.0046   -1.2053 H   0  0  0  0  0  0  0  0  0  0  0  0
   -6.9920    3.7855    2.7788 H   0  0  0  0  0  0  0  0  0  0  0  0
   -5.9622    4.7403    1.6224 H   0  0  0  0  0  0  0  0  0  0  0  0
   -7.6106    5.2340    1.9930 H   0  0  0  0  0  0  0  0  0  0  0  0
  1 13  1  0  0  0  0
  1 28  1  0  0  0  0
  2 15  1  0  0  0  0
  2 29  1  0  0  0  0
  3 22  2  0  0  0  0
  4 30  1  0  0  0  0
  4 33  1  0  0  0  0
  5  9  1  0  0  0  0
  5 12  1  0  0  0  0
  5 35  1  0  0  0  0
  6  9  2  0  0  0  0
  6 21  1  0  0  0  0
  7 10  1  0  0  0  0
  7 21  2  0  0  0  0
  8  9  1  0  0  0  0
  8 10  1  0  0  0  0
  8 11  2  0  0  0  0
 10 14  2  0  0  0  0
 11 13  1  0  0  0  0
 11 34  1  0  0  0  0
 12 16  1  0  0  0  0
 12 18  2  0  0  0  0
 13 15  2  0  0  0  0
 14 15  1  0  0  0  0
 14 36  1  0  0  0  0
 16 17  2  0  0  0  0
 16 37  1  0  0  0  0
 17 19  1  0  0  0  0
 17 22  1  0  0  0  0
 18 20  1  0  0  0  0
 18 38  1  0  0  0  0
 19 20  2  0  0  0  0
 19 39  1  0  0  0  0
 20 40  1  0  0  0  0
 21 41  1  0  0  0  0
 22 23  1  0  0  0  0
 23 25  2  0  0  0  0
 23 42  1  0  0  0  0
 24 25  1  0  0  0  0
 24 26  2  0  0  0  0
 24 27  1  0  0  0  0
 25 43  1  0  0  0  0
 26 31  1  0  0  0  0
 26 44  1  0  0  0  0
 27 32  2  0  0  0  0
 27 45  1  0  0  0  0
 28 46  1  0  0  0  0
 28 47  1  0  0  0  0
 28 48  1  0  0  0  0
 29 49  1  0  0  0  0
 29 50  1  0  0  0  0
 29 51  1  0  0  0  0
 30 31  2  0  0  0  0
 30 32  1  0  0  0  0
 31 52  1  0  0  0  0
 32 53  1  0  0  0  0
 33 54  1  0  0  0  0
 33 55  1  0  0  0  0
 33 56  1  0  0  0  0
M  END
> <PUBCHEM_COMPOUND_CID>
127045210

> <PUBCHEM_CONFORMER_RMSD>
1

> <PUBCHEM_CONFORMER_DIVERSEORDER>
8
119
92
63
105
88
36
73
15
116
14
33
21
11
106
25
103
83
111
84
121
44
16
100
80
107
81
117
76
114
59
95
40
86
62
55
13
104
85
90
96
87
71
39
89
113
99
61
19
4
109
112
53
74
57
41
97
115
28
110
77
69
26
12
65
48
1
47
24
91
35
72
66
22
18
43
51
70
23
118
7
64
78
37
29
68
93
32
27
58
101
9
2
79
98
20
30
75
67
50
42
17
38
46
10
82
49
108
120
60
34
6
54
5
31
94
52
3
102
45
56

> <PUBCHEM_MMFF94_PARTIAL_CHARGES>
46
1 -0.36
10 0.31
11 -0.15
12 0.1
13 0.08
14 -0.15
15 0.08
16 -0.15
17 0.09
18 -0.15
19 -0.15
2 -0.36
20 -0.15
21 0.47
22 0.47
23 -0.14
24 0.03
25 -0.18
26 -0.15
27 -0.15
28 0.28
29 0.28
3 -0.57
30 0.08
31 -0.15
32 -0.15
33 0.28
34 0.15
35 0.4
36 0.15
37 0.15
38 0.15
39 0.15
4 -0.36
40 0.15
41 0.15
42 0.15
43 0.15
44 0.15
45 0.15
5 -0.6
52 0.15
53 0.15
6 -0.62
7 -0.62
9 0.41

> <PUBCHEM_EFFECTIVE_ROTOR_COUNT>
8

> <PUBCHEM_PHARMACOPHORE_FEATURES>
11
1 1 acceptor
1 2 acceptor
1 3 acceptor
1 4 acceptor
1 5 donor
3 5 6 9 cation
3 6 7 21 cation
6 12 16 17 18 19 20 rings
6 24 26 27 30 31 32 rings
6 6 7 8 9 10 21 rings
6 8 10 11 13 14 15 rings

> <PUBCHEM_HEAVY_ATOM_COUNT>
33

> <PUBCHEM_ATOM_DEF_STEREO_COUNT>
0

> <PUBCHEM_ATOM_UDEF_STEREO_COUNT>
0

> <PUBCHEM_BOND_DEF_STEREO_COUNT>
1

> <PUBCHEM_BOND_UDEF_STEREO_COUNT>
0

> <PUBCHEM_ISOTOPIC_ATOM_COUNT>
0

> <PUBCHEM_COMPONENT_COUNT>
1

> <PUBCHEM_CACTVS_TAUTO_COUNT>
8

> <PUBCHEM_CONFORMER_ID>
07928E5A00000008

> <PUBCHEM_MMFF94_ENERGY>
148.3127

> <PUBCHEM_FEATURE_SELFOVERLAP>
55.999

> <PUBCHEM_SHAPE_FINGERPRINT>
100830 2 18335425685735439389
10917259 128 18196920279753698472
10939801 23 18333731346691082997
1200032 147 18260838076607841138
12061779 8 18334583468207845212
12422481 6 17458336421284199967
12975358 362 18119259372529010941
14340393 91 13326581696827155979
14394314 77 18260827158717228620
14664723 55 18411984650312444741
14747282 540 18338230445113924397
14849402 71 18121217576345673507
15198563 99 17557964411872235759
15513586 35 17679026152052494975
155225 6 18269280071790087905
19053607 189 18272643554361400282
21774942 28 18267583693073790964
22033318 11 18114175277103793416
22122407 14 17969509379746880313
23522609 53 18041844034247191254
23569914 152 17271750294889356982
245318 6 18339085891615088911
2748736 6 18340760460708859613
3918712 181 18413103957650891701
44249763 50 16844140498730224271
45266715 3 10951177022865966719
5219985 13 18200589208068120271
57724786 102 18260257534495288066
5911458 16 18334294296559562381
6036956 94 18056202372165004265
6058803 2 17898837213980510466
636775 72 18124873723343825080
7970288 3 8790889583904420817
9849439 229 18410857642615685175

> <PUBCHEM_SHAPE_MULTIPOLES>
640.7
22.54
5.87
2.1
18.44
1.21
0.03
-32.85
1.89
4.31
-0.29
-2.94
-1.01
-6.52

> <PUBCHEM_SHAPE_SELFOVERLAP>
1401.655

> <PUBCHEM_SHAPE_VOLUME>
345.4

> <PUBCHEM_COORDINATE_TYPE>
2
5
10

$$$$