37
 OpenBabel03292021453D

191191  0  0  1  0  0  0  0  0999 V2000
    1.2619    3.3980   -4.0762 C   0  0  0  0  0  0  0  0  0  0  0  0
    2.0893    3.9957   -5.2276 C   0  0  0  0  0  0  0  0  0  0  0  0
    1.4066    4.0591   -6.6490 C   0  0  0  0  0  0  0  0  0  0  0  0
    2.3430    3.6418   -7.8481 C   0  0  2  0  0  0  0  0  0  0  0  0
    2.1561    4.5308   -9.2447 N   0  0  0  0  0  0  0  0  0  0  0  0
    1.3171    4.5227  -10.4074 C   0  0  0  0  0  0  0  0  0  0  0  0
    0.4023    3.7054  -10.5224 O   0  0  0  0  0  0  0  0  0  0  0  0
    1.4775    5.8428  -11.5590 C   0  0  2  0  0  0  0  0  0  0  0  0
    0.5512    6.0865  -12.9152 C   0  0  0  0  0  0  0  0  0  0  0  0
    1.0456    7.1255  -14.0926 C   0  0  0  0  0  0  0  0  0  0  0  0
    1.7640    6.5245  -15.3275 C   0  0  0  0  0  0  0  0  0  0  0  0
   -0.0484    8.0313  -14.7055 C   0  0  0  0  0  0  0  0  0  0  0  0
    2.8504    6.1647  -11.9125 N   0  0  0  0  0  0  0  0  0  0  0  0
    3.5070    5.2689  -12.8527 C   0  0  0  0  0  0  0  0  0  0  0  0
    3.2797    7.5129  -11.8230 C   0  0  0  0  0  0  0  0  0  0  0  0
    3.6777    8.1724  -12.8041 O   0  0  0  0  0  0  0  0  0  0  0  0
    3.6282    7.9168  -10.3750 C   0  0  2  0  0  0  0  0  0  0  0  0
    2.7748    8.9538   -9.6109 C   0  0  0  0  0  0  0  0  0  0  0  0
    3.1218    8.8288   -8.1163 C   0  0  0  0  0  0  0  0  0  0  0  0
    1.2600    8.8031   -9.7476 C   0  0  0  0  0  0  0  0  0  0  0  0
    5.0894    8.2127  -10.4722 N   0  0  0  0  0  0  0  0  0  0  0  0
    5.5361    9.5639  -10.7827 C   0  0  0  0  0  0  0  0  0  0  0  0
    5.8413    7.1000  -10.8710 C   0  0  0  0  0  0  0  0  0  0  0  0
    5.3438    5.9691  -10.7724 O   0  0  0  0  0  0  0  0  0  0  0  0
    7.3105    7.2397  -11.3237 C   0  0  2  0  0  0  0  0  0  0  0  0
    7.5960    6.7578  -12.7630 C   0  0  0  0  0  0  0  0  0  0  0  0
    7.1798    7.6967  -13.9163 C   0  0  0  0  0  0  0  0  0  0  0  0
    7.8253    9.0815  -13.8561 C   0  0  0  0  0  0  0  0  0  0  0  0
    7.5569    7.0472  -15.2570 C   0  0  0  0  0  0  0  0  0  0  0  0
    8.0163    6.4129  -10.3116 N   0  0  0  0  0  0  0  0  0  0  0  0
    7.7529    4.9590  -10.3244 C   0  0  0  0  0  0  0  0  0  0  0  0
    8.3383    7.1019   -9.1385 C   0  0  0  0  0  0  0  0  0  0  0  0
    8.3480    8.3392   -9.1057 O   0  0  0  0  0  0  0  0  0  0  0  0
    8.7579    6.3147   -7.8815 C   0  0  2  0  0  0  0  0  0  0  0  0
    7.9310    6.7823   -6.6457 C   0  0  0  0  0  0  0  0  0  0  0  0
    6.3955    6.6942   -6.7940 C   0  0  0  0  0  0  0  0  0  0  0  0
    5.8691    5.2690   -6.8725 C   0  0  0  0  0  0  0  0  0  0  0  0
    5.7025    7.4053   -5.6248 C   0  0  0  0  0  0  0  0  0  0  0  0
   10.2308    6.5076   -7.7175 N   0  0  0  0  0  0  0  0  0  0  0  0
   10.6865    7.8429   -7.3436 C   0  0  0  0  0  0  0  0  0  0  0  0
   11.0513    5.6649   -8.4721 C   0  0  0  0  0  0  0  0  0  0  0  0
   10.5730    4.8364   -9.2537 O   0  0  0  0  0  0  0  0  0  0  0  0
   12.5705    5.5474   -8.2349 C   0  0  1  0  0  0  0  0  0  0  0  0
   13.4026    6.8049   -8.0561 C   0  0  0  0  0  0  0  0  0  0  0  0
   12.8397    4.5730   -7.1705 N   0  0  0  0  0  0  0  0  0  0  0  0
   13.2744    3.3109   -7.4680 C   0  0  0  0  0  0  0  0  0  0  0  0
   14.4061    3.0093   -7.0876 O   0  0  0  0  0  0  0  0  0  0  0  0
   12.3969    2.3303   -8.3128 C   0  0  2  0  0  0  0  0  0  0  0  0
   10.9261    2.2190   -7.9554 C   0  0  0  0  0  0  0  0  0  0  0  0
   13.0113    1.0030   -8.4647 N   0  0  0  0  0  0  0  0  0  0  0  0
   13.1903   -0.1044   -7.7033 C   0  0  0  0  0  0  0  0  0  0  0  0
   13.6968   -1.0521   -8.3458 O   0  0  0  0  0  0  0  0  0  0  0  0
   12.8263   -0.3482   -6.1890 C   0  0  1  0  0  0  0  0  0  0  0  0
   12.4945    0.9131   -5.3727 C   0  0  0  0  0  0  0  0  0  0  0  0
   12.8045    0.8929   -3.8578 C   0  0  0  0  0  0  0  0  0  0  0  0
   14.2597    1.2529   -3.5579 C   0  0  0  0  0  0  0  0  0  0  0  0
   11.8813    1.9019   -3.1570 C   0  0  0  0  0  0  0  0  0  0  0  0
   11.9070   -1.5488   -6.0598 N   0  0  0  0  0  0  0  0  0  0  0  0
   12.4698   -2.8264   -6.5049 C   0  0  0  0  0  0  0  0  0  0  0  0
   10.7720   -1.5654   -5.2329 C   0  0  0  0  0  0  0  0  0  0  0  0
   10.6343   -0.7034   -4.3726 O   0  0  0  0  0  0  0  0  0  0  0  0
    9.6869   -2.6969   -5.2739 C   0  0  2  0  0  0  0  0  0  0  0  0
    8.7922   -3.0127   -6.4883 C   0  0  0  0  0  0  0  0  0  0  0  0
    8.0494   -4.3487   -6.2708 C   0  0  0  0  0  0  0  0  0  0  0  0
    9.4399   -3.0256   -7.8602 C   0  0  0  0  0  0  0  0  0  0  0  0
    8.7807   -2.4859   -4.0947 N   0  0  0  0  0  0  0  0  0  0  0  0
    7.7205   -1.6663   -3.8062 C   0  0  0  0  0  0  0  0  0  0  0  0
    7.0533   -2.0842   -2.8373 O   0  0  0  0  0  0  0  0  0  0  0  0
    7.3039   -0.2854   -4.4400 C   0  0  1  0  0  0  0  0  0  0  0  0
    8.1661    0.4029   -5.5085 C   0  0  0  0  0  0  0  0  0  0  0  0
    7.6004    1.7650   -5.9795 C   0  0  0  0  0  0  0  0  0  0  0  0
    8.3168    2.9086   -5.2608 C   0  0  0  0  0  0  0  0  0  0  0  0
    7.6516    1.8823   -7.5047 C   0  0  0  0  0  0  0  0  0  0  0  0
    5.8187   -0.1190   -4.7467 N   0  0  0  0  0  0  0  0  0  0  0  0
    4.9327   -0.0436   -3.5990 C   0  0  0  0  0  0  0  0  0  0  0  0
    5.3746   -0.3903   -6.0390 C   0  0  0  0  0  0  0  0  0  0  0  0
    6.0769   -1.1333   -6.7441 O   0  0  0  0  0  0  0  0  0  0  0  0
    3.9724    0.0082   -6.6614 C   0  0  0  0  0  0  0  0  0  0  0  0
    3.0753    1.2384   -6.6650 N   0  0  0  0  0  0  0  0  0  0  0  0
    1.7881    0.9141   -6.0726 C   0  0  0  0  0  0  0  0  0  0  0  0
    3.1470    2.1682   -7.7740 C   0  0  0  0  0  0  0  0  0  0  0  0
    3.9972    1.9688   -8.6551 O   0  0  0  0  0  0  0  0  0  0  0  0
    1.3581    4.0046   -3.1673 H   0  0  0  0  0  0  0  0  0  0  0  0
    1.6396    2.4087   -3.7910 H   0  0  0  0  0  0  0  0  0  0  0  0
    0.1996    3.2999   -4.3117 H   0  0  0  0  0  0  0  0  0  0  0  0
    3.0467    3.4635   -5.2620 H   0  0  0  0  0  0  0  0  0  0  0  0
    2.3486    5.0195   -4.9292 H   0  0  0  0  0  0  0  0  0  0  0  0
    1.1234    5.1112   -6.7892 H   0  0  0  0  0  0  0  0  0  0  0  0
    0.4621    3.5093   -6.6734 H   0  0  0  0  0  0  0  0  0  0  0  0
    3.2226    4.2168   -7.5332 H   0  0  0  0  0  0  0  0  0  0  0  0
    2.9207    5.1838   -9.3417 H   0  0  0  0  0  0  0  0  0  0  0  0
    1.1296    6.6546  -10.9282 H   0  0  0  0  0  0  0  0  0  0  0  0
    0.3163    5.1264  -13.3820 H   0  0  0  0  0  0  0  0  0  0  0  0
   -0.3993    6.4978  -12.5491 H   0  0  0  0  0  0  0  0  0  0  0  0
    1.7080    7.8586  -13.6498 H   0  0  0  0  0  0  0  0  0  0  0  0
    1.1243    5.8158  -15.8625 H   0  0  0  0  0  0  0  0  0  0  0  0
    2.7155    6.0461  -15.1134 H   0  0  0  0  0  0  0  0  0  0  0  0
    2.0248    7.3165  -16.0489 H   0  0  0  0  0  0  0  0  0  0  0  0
   -0.7706    7.4683  -15.3024 H   0  0  0  0  0  0  0  0  0  0  0  0
    0.4180    8.7621  -15.3913 H   0  0  0  0  0  0  0  0  0  0  0  0
   -0.5646    8.6220  -13.9469 H   0  0  0  0  0  0  0  0  0  0  0  0
    2.7832    4.8193  -13.5313 H   0  0  0  0  0  0  0  0  0  0  0  0
    3.9541    4.4393  -12.2820 H   0  0  0  0  0  0  0  0  0  0  0  0
    4.2917    5.7800  -13.4164 H   0  0  0  0  0  0  0  0  0  0  0  0
    3.5588    6.9990   -9.7856 H   0  0  0  0  0  0  0  0  0  0  0  0
    2.9929    9.9710   -9.9435 H   0  0  0  0  0  0  0  0  0  0  0  0
    2.9353    7.8069   -7.7587 H   0  0  0  0  0  0  0  0  0  0  0  0
    2.5164    9.5040   -7.5049 H   0  0  0  0  0  0  0  0  0  0  0  0
    4.1761    9.0571   -7.9356 H   0  0  0  0  0  0  0  0  0  0  0  0
    0.9056    7.8621   -9.3140 H   0  0  0  0  0  0  0  0  0  0  0  0
    0.9413    8.8753  -10.7919 H   0  0  0  0  0  0  0  0  0  0  0  0
    0.7476    9.6035   -9.2010 H   0  0  0  0  0  0  0  0  0  0  0  0
    4.8713   10.3239  -10.3776 H   0  0  0  0  0  0  0  0  0  0  0  0
    5.6047    9.6862  -11.8650 H   0  0  0  0  0  0  0  0  0  0  0  0
    6.5140    9.7369  -10.3310 H   0  0  0  0  0  0  0  0  0  0  0  0
    7.6611    8.2656  -11.2399 H   0  0  0  0  0  0  0  0  0  0  0  0
    8.6754    6.5692  -12.8486 H   0  0  0  0  0  0  0  0  0  0  0  0
    7.0997    5.7973  -12.9423 H   0  0  0  0  0  0  0  0  0  0  0  0
    6.0914    7.8172  -13.8947 H   0  0  0  0  0  0  0  0  0  0  0  0
    8.9173    9.0153  -13.8932 H   0  0  0  0  0  0  0  0  0  0  0  0
    7.5518    9.6263  -12.9517 H   0  0  0  0  0  0  0  0  0  0  0  0
    7.4970    9.6912  -14.7065 H   0  0  0  0  0  0  0  0  0  0  0  0
    8.6443    6.9361  -15.3496 H   0  0  0  0  0  0  0  0  0  0  0  0
    7.2125    7.6575  -16.0990 H   0  0  0  0  0  0  0  0  0  0  0  0
    7.1078    6.0541  -15.3580 H   0  0  0  0  0  0  0  0  0  0  0  0
    7.5440    4.5841  -11.3241 H   0  0  0  0  0  0  0  0  0  0  0  0
    6.9171    4.7333   -9.6580 H   0  0  0  0  0  0  0  0  0  0  0  0
    8.5990    4.3918   -9.9580 H   0  0  0  0  0  0  0  0  0  0  0  0
    8.5773    5.2464   -7.9976 H   0  0  0  0  0  0  0  0  0  0  0  0
    8.2534    6.2110   -5.7671 H   0  0  0  0  0  0  0  0  0  0  0  0
    8.1516    7.8291   -6.4142 H   0  0  0  0  0  0  0  0  0  0  0  0
    6.0972    7.2151   -7.7108 H   0  0  0  0  0  0  0  0  0  0  0  0
    5.8225    4.7927   -5.8880 H   0  0  0  0  0  0  0  0  0  0  0  0
    6.4586    4.6341   -7.5318 H   0  0  0  0  0  0  0  0  0  0  0  0
    4.8562    5.3005   -7.2710 H   0  0  0  0  0  0  0  0  0  0  0  0
    5.9819    6.9558   -4.6655 H   0  0  0  0  0  0  0  0  0  0  0  0
    4.6124    7.3411   -5.7192 H   0  0  0  0  0  0  0  0  0  0  0  0
    5.9719    8.4656   -5.5961 H   0  0  0  0  0  0  0  0  0  0  0  0
    9.8737    8.5217   -7.0969 H   0  0  0  0  0  0  0  0  0  0  0  0
   11.2312    8.2909   -8.1791 H   0  0  0  0  0  0  0  0  0  0  0  0
   11.3217    7.7606   -6.4604 H   0  0  0  0  0  0  0  0  0  0  0  0
   12.9528    5.1047   -9.1667 H   0  0  0  0  0  0  0  0  0  0  0  0
   13.2702    7.2564   -7.0700 H   0  0  0  0  0  0  0  0  0  0  0  0
   13.1789    7.5456   -8.8290 H   0  0  0  0  0  0  0  0  0  0  0  0
   14.4686    6.5616   -8.1333 H   0  0  0  0  0  0  0  0  0  0  0  0
   13.4814    4.9439   -6.4787 H   0  0  0  0  0  0  0  0  0  0  0  0
   12.4392    2.7533   -9.3266 H   0  0  0  0  0  0  0  0  0  0  0  0
   10.6760    1.2821   -7.4525 H   0  0  0  0  0  0  0  0  0  0  0  0
   10.3258    2.2115   -8.8735 H   0  0  0  0  0  0  0  0  0  0  0  0
   10.5835    3.0495   -7.3374 H   0  0  0  0  0  0  0  0  0  0  0  0
   13.3900    0.8245   -9.3920 H   0  0  0  0  0  0  0  0  0  0  0  0
   13.7816   -0.7008   -5.7689 H   0  0  0  0  0  0  0  0  0  0  0  0
   11.4493    1.1844   -5.5364 H   0  0  0  0  0  0  0  0  0  0  0  0
   13.0763    1.7378   -5.7536 H   0  0  0  0  0  0  0  0  0  0  0  0
   12.6347   -0.1024   -3.4355 H   0  0  0  0  0  0  0  0  0  0  0  0
   14.4941    2.2721   -3.8825 H   0  0  0  0  0  0  0  0  0  0  0  0
   14.9483    0.5650   -4.0551 H   0  0  0  0  0  0  0  0  0  0  0  0
   14.4466    1.1962   -2.4798 H   0  0  0  0  0  0  0  0  0  0  0  0
   12.0583    2.9189   -3.5229 H   0  0  0  0  0  0  0  0  0  0  0  0
   12.0387    1.8944   -2.0747 H   0  0  0  0  0  0  0  0  0  0  0  0
   10.8270    1.6680   -3.3391 H   0  0  0  0  0  0  0  0  0  0  0  0
   13.5592   -2.7643   -6.5726 H   0  0  0  0  0  0  0  0  0  0  0  0
   12.0764   -3.0768   -7.4886 H   0  0  0  0  0  0  0  0  0  0  0  0
   12.2434   -3.6275   -5.7961 H   0  0  0  0  0  0  0  0  0  0  0  0
   10.2335   -3.6118   -5.0159 H   0  0  0  0  0  0  0  0  0  0  0  0
    8.0215   -2.2532   -6.5398 H   0  0  0  0  0  0  0  0  0  0  0  0
    8.7386   -5.1994   -6.3193 H   0  0  0  0  0  0  0  0  0  0  0  0
    7.2777   -4.4903   -7.0347 H   0  0  0  0  0  0  0  0  0  0  0  0
    7.5431   -4.3871   -5.2991 H   0  0  0  0  0  0  0  0  0  0  0  0
   10.1201   -3.8724   -7.9771 H   0  0  0  0  0  0  0  0  0  0  0  0
    9.9652   -2.0902   -8.0624 H   0  0  0  0  0  0  0  0  0  0  0  0
    8.6648   -3.1294   -8.6281 H   0  0  0  0  0  0  0  0  0  0  0  0
    8.8210   -3.2361   -3.4172 H   0  0  0  0  0  0  0  0  0  0  0  0
    7.4585    0.3727   -3.5691 H   0  0  0  0  0  0  0  0  0  0  0  0
    8.3335   -0.2619   -6.3517 H   0  0  0  0  0  0  0  0  0  0  0  0
    9.1479    0.6101   -5.0958 H   0  0  0  0  0  0  0  0  0  0  0  0
    6.5516    1.8862   -5.7034 H   0  0  0  0  0  0  0  0  0  0  0  0
    9.3789    2.9429   -5.4999 H   0  0  0  0  0  0  0  0  0  0  0  0
    8.2170    2.7971   -4.1750 H   0  0  0  0  0  0  0  0  0  0  0  0
    7.8738    3.8661   -5.5324 H   0  0  0  0  0  0  0  0  0  0  0  0
    8.0815    2.8301   -7.8310 H   0  0  0  0  0  0  0  0  0  0  0  0
    6.6370    1.8265   -7.9108 H   0  0  0  0  0  0  0  0  0  0  0  0
    8.2133    1.0685   -7.9771 H   0  0  0  0  0  0  0  0  0  0  0  0
    5.4708    0.3624   -2.7285 H   0  0  0  0  0  0  0  0  0  0  0  0
    4.5841   -1.0512   -3.3502 H   0  0  0  0  0  0  0  0  0  0  0  0
    4.0829    0.5965   -3.8158 H   0  0  0  0  0  0  0  0  0  0  0  0
    3.3451   -0.8277   -6.3169 H   0  0  0  0  0  0  0  0  0  0  0  0
    4.1304   -0.1949   -7.7277 H   0  0  0  0  0  0  0  0  0  0  0  0
    1.3635    0.0533   -6.6013 H   0  0  0  0  0  0  0  0  0  0  0  0
    1.0541    1.6974   -6.1440 H   0  0  0  0  0  0  0  0  0  0  0  0
    1.9430    0.6289   -5.0254 H   0  0  0  0  0  0  0  0  0  0  0  0
  1  2  1  0  0  0  0
  1 83  1  0  0  0  0
  1 84  1  0  0  0  0
  1 85  1  0  0  0  0
  2  3  1  0  0  0  0
  2 86  1  0  0  0  0
  2 87  1  0  0  0  0
  3  4  1  0  0  0  0
  3 88  1  0  0  0  0
  3 89  1  0  0  0  0
  4  5  1  0  0  0  0
  4 81  1  0  0  0  0
  4 90  1  1  0  0  0
  5  6  1  0  0  0  0
  5 91  1  0  0  0  0
  6  7  2  0  0  0  0
  6  8  1  0  0  0  0
  8 13  1  0  0  0  0
  8  9  1  0  0  0  0
  8 92  1  1  0  0  0
  9 10  1  0  0  0  0
  9 93  1  0  0  0  0
  9 94  1  0  0  0  0
 10 11  1  0  0  0  0
 10 12  1  0  0  0  0
 10 95  1  0  0  0  0
 11 96  1  0  0  0  0
 11 97  1  0  0  0  0
 11 98  1  0  0  0  0
 12 99  1  0  0  0  0
 12100  1  0  0  0  0
 12101  1  0  0  0  0
 13 14  1  0  0  0  0
 13 15  1  0  0  0  0
 14102  1  0  0  0  0
 14103  1  0  0  0  0
 14104  1  0  0  0  0
 15 16  2  0  0  0  0
 15 17  1  0  0  0  0
 17 21  1  0  0  0  0
 17 18  1  0  0  0  0
 17105  1  1  0  0  0
 18 19  1  0  0  0  0
 18 20  1  0  0  0  0
 18106  1  0  0  0  0
 19107  1  0  0  0  0
 19108  1  0  0  0  0
 19109  1  0  0  0  0
 20110  1  0  0  0  0
 20111  1  0  0  0  0
 20112  1  0  0  0  0
 21 22  1  0  0  0  0
 21 23  1  0  0  0  0
 22113  1  0  0  0  0
 22114  1  0  0  0  0
 22115  1  0  0  0  0
 23 24  2  0  0  0  0
 23 25  1  0  0  0  0
 25 30  1  0  0  0  0
 25 26  1  0  0  0  0
 25116  1  1  0  0  0
 26 27  1  0  0  0  0
 26117  1  0  0  0  0
 26118  1  0  0  0  0
 27 28  1  0  0  0  0
 27 29  1  0  0  0  0
 27119  1  0  0  0  0
 28120  1  0  0  0  0
 28121  1  0  0  0  0
 28122  1  0  0  0  0
 29123  1  0  0  0  0
 29124  1  0  0  0  0
 29125  1  0  0  0  0
 30 31  1  0  0  0  0
 30 32  1  0  0  0  0
 31126  1  0  0  0  0
 31127  1  0  0  0  0
 31128  1  0  0  0  0
 32 33  2  0  0  0  0
 32 34  1  0  0  0  0
 34 39  1  0  0  0  0
 34 35  1  0  0  0  0
 34129  1  6  0  0  0
 35 36  1  0  0  0  0
 35130  1  0  0  0  0
 35131  1  0  0  0  0
 36 37  1  0  0  0  0
 36 38  1  0  0  0  0
 36132  1  0  0  0  0
 37133  1  0  0  0  0
 37134  1  0  0  0  0
 37135  1  0  0  0  0
 38136  1  0  0  0  0
 38137  1  0  0  0  0
 38138  1  0  0  0  0
 39 40  1  0  0  0  0
 39 41  1  0  0  0  0
 40139  1  0  0  0  0
 40140  1  0  0  0  0
 40141  1  0  0  0  0
 41 42  2  0  0  0  0
 41 43  1  0  0  0  0
 43 44  1  0  0  0  0
 43 45  1  0  0  0  0
 43142  1  6  0  0  0
 44143  1  0  0  0  0
 44144  1  0  0  0  0
 44145  1  0  0  0  0
 45 46  1  0  0  0  0
 45146  1  0  0  0  0
 46 47  2  0  0  0  0
 46 48  1  0  0  0  0
 48 50  1  0  0  0  0
 48 49  1  0  0  0  0
 48147  1  6  0  0  0
 49148  1  0  0  0  0
 49149  1  0  0  0  0
 49150  1  0  0  0  0
 50 51  1  0  0  0  0
 50151  1  0  0  0  0
 51 52  2  0  0  0  0
 51 53  1  0  0  0  0
 53 54  1  0  0  0  0
 53 58  1  0  0  0  0
 53152  1  1  0  0  0
 54 55  1  0  0  0  0
 54153  1  0  0  0  0
 54154  1  0  0  0  0
 55 56  1  0  0  0  0
 55 57  1  0  0  0  0
 55155  1  0  0  0  0
 56156  1  0  0  0  0
 56157  1  0  0  0  0
 56158  1  0  0  0  0
 57159  1  0  0  0  0
 57160  1  0  0  0  0
 57161  1  0  0  0  0
 58 59  1  0  0  0  0
 58 60  1  0  0  0  0
 59162  1  0  0  0  0
 59163  1  0  0  0  0
 59164  1  0  0  0  0
 60 61  2  0  0  0  0
 60 62  1  0  0  0  0
 62 66  1  0  0  0  0
 62 63  1  0  0  0  0
 62165  1  1  0  0  0
 63 64  1  0  0  0  0
 63 65  1  0  0  0  0
 63166  1  0  0  0  0
 64167  1  0  0  0  0
 64168  1  0  0  0  0
 64169  1  0  0  0  0
 65170  1  0  0  0  0
 65171  1  0  0  0  0
 65172  1  0  0  0  0
 66 67  1  0  0  0  0
 66173  1  0  0  0  0
 67 68  2  0  0  0  0
 67 69  1  0  0  0  0
 69 70  1  0  0  0  0
 69 74  1  0  0  0  0
 69174  1  1  0  0  0
 70 71  1  0  0  0  0
 70175  1  0  0  0  0
 70176  1  0  0  0  0
 71 72  1  0  0  0  0
 71 73  1  0  0  0  0
 71177  1  0  0  0  0
 72178  1  0  0  0  0
 72179  1  0  0  0  0
 72180  1  0  0  0  0
 73181  1  0  0  0  0
 73182  1  0  0  0  0
 73183  1  0  0  0  0
 74 75  1  0  0  0  0
 74 76  1  0  0  0  0
 75184  1  0  0  0  0
 75185  1  0  0  0  0
 75186  1  0  0  0  0
 76 77  2  0  0  0  0
 76 78  1  0  0  0  0
 78 79  1  0  0  0  0
 78187  1  0  0  0  0
 78188  1  0  0  0  0
 79 80  1  0  0  0  0
 79 81  1  0  0  0  0
 80189  1  0  0  0  0
 80190  1  0  0  0  0
 80191  1  0  0  0  0
 81 82  2  0  0  0  0
M  END
>  <Energy>
508.212

$$$$