16362
  -OEChem-03242010103D

 63 67  0     0  0  0  0  0  0999 V2000
   -3.0087    4.7200   -2.2840 F   0  0  0  0  0  0  0  0  0  0  0  0
   -6.3681   -3.9019   -1.6544 F   0  0  0  0  0  0  0  0  0  0  0  0
    2.7708   -2.1518   -1.1571 O   0  0  0  0  0  0  0  0  0  0  0  0
    0.5967   -0.1759    2.2855 N   0  0  0  0  0  0  0  0  0  0  0  0
    4.1091   -0.5254   -0.0533 N   0  0  0  0  0  0  0  0  0  0  0  0
    4.9856   -1.6485   -1.8157 N   0  0  0  0  0  0  0  0  0  0  0  0
    3.2093   -0.0619    0.9733 C   0  0  0  0  0  0  0  0  0  0  0  0
    1.9590    0.5665    0.3583 C   0  0  0  0  0  0  0  0  0  0  0  0
    2.8186   -1.1991    1.9175 C   0  0  0  0  0  0  0  0  0  0  0  0
    0.9520    0.9698    1.4368 C   0  0  0  0  0  0  0  0  0  0  0  0
    1.7840   -0.7368    2.9450 C   0  0  0  0  0  0  0  0  0  0  0  0
   -0.4038    0.2142    3.2788 C   0  0  0  0  0  0  0  0  0  0  0  0
   -1.6513    0.7643    2.5877 C   0  0  0  0  0  0  0  0  0  0  0  0
    5.4164   -0.0638   -0.2558 C   0  0  0  0  0  0  0  0  0  0  0  0
   -2.2662   -0.2807    1.6454 C   0  0  0  0  0  0  0  0  0  0  0  0
    3.8110   -1.5230   -1.0205 C   0  0  0  0  0  0  0  0  0  0  0  0
   -3.5938    0.1997    1.0042 C   0  0  0  0  0  0  0  0  0  0  0  0
    5.9489   -0.7585   -1.3402 C   0  0  0  0  0  0  0  0  0  0  0  0
    6.1490    0.8899    0.4196 C   0  0  0  0  0  0  0  0  0  0  0  0
   -3.4352    1.4251    0.1129 C   0  0  0  0  0  0  0  0  0  0  0  0
   -4.3471   -0.9137    0.2824 C   0  0  0  0  0  0  0  0  0  0  0  0
    7.2278   -0.5389   -1.8019 C   0  0  0  0  0  0  0  0  0  0  0  0
    7.4513    1.1307   -0.0307 C   0  0  0  0  0  0  0  0  0  0  0  0
    7.9847    0.4240   -1.1293 C   0  0  0  0  0  0  0  0  0  0  0  0
   -3.5654    2.6775    0.6747 C   0  0  0  0  0  0  0  0  0  0  0  0
   -5.7220   -0.8515    0.2199 C   0  0  0  0  0  0  0  0  0  0  0  0
   -3.1662    1.2423   -1.2272 C   0  0  0  0  0  0  0  0  0  0  0  0
   -3.6262   -1.9434   -0.2824 C   0  0  0  0  0  0  0  0  0  0  0  0
   -3.4201    3.7994   -0.1414 C   0  0  0  0  0  0  0  0  0  0  0  0
   -6.4104   -1.8694   -0.4400 C   0  0  0  0  0  0  0  0  0  0  0  0
   -3.0207    2.3640   -2.0435 C   0  0  0  0  0  0  0  0  0  0  0  0
   -4.3146   -2.9613   -0.9425 C   0  0  0  0  0  0  0  0  0  0  0  0
   -3.1476    3.6427   -1.5005 C   0  0  0  0  0  0  0  0  0  0  0  0
   -5.7068   -2.9243   -1.0214 C   0  0  0  0  0  0  0  0  0  0  0  0
    3.7095    0.7089    1.5705 H   0  0  0  0  0  0  0  0  0  0  0  0
    2.2377    1.4485   -0.2319 H   0  0  0  0  0  0  0  0  0  0  0  0
    1.4687   -0.1258   -0.3371 H   0  0  0  0  0  0  0  0  0  0  0  0
    2.4049   -2.0499    1.3626 H   0  0  0  0  0  0  0  0  0  0  0  0
    3.7087   -1.5750    2.4372 H   0  0  0  0  0  0  0  0  0  0  0  0
    1.3626    1.7923    2.0373 H   0  0  0  0  0  0  0  0  0  0  0  0
    0.0948    1.3620    0.8831 H   0  0  0  0  0  0  0  0  0  0  0  0
    1.4967   -1.6032    3.5531 H   0  0  0  0  0  0  0  0  0  0  0  0
    2.2403   -0.0017    3.6211 H   0  0  0  0  0  0  0  0  0  0  0  0
   -0.6882   -0.6565    3.8827 H   0  0  0  0  0  0  0  0  0  0  0  0
   -0.0089    0.9715    3.9683 H   0  0  0  0  0  0  0  0  0  0  0  0
   -1.4558    1.7193    2.0959 H   0  0  0  0  0  0  0  0  0  0  0  0
   -2.3855    0.9926    3.3720 H   0  0  0  0  0  0  0  0  0  0  0  0
   -2.4437   -1.2054    2.2105 H   0  0  0  0  0  0  0  0  0  0  0  0
   -1.5417   -0.5108    0.8561 H   0  0  0  0  0  0  0  0  0  0  0  0
   -4.2422    0.4852    1.8476 H   0  0  0  0  0  0  0  0  0  0  0  0
    5.1138   -2.2762   -2.5998 H   0  0  0  0  0  0  0  0  0  0  0  0
    5.7575    1.4426    1.2645 H   0  0  0  0  0  0  0  0  0  0  0  0
    7.6359   -1.0823   -2.6458 H   0  0  0  0  0  0  0  0  0  0  0  0
    8.0646    1.8741    0.4723 H   0  0  0  0  0  0  0  0  0  0  0  0
    9.0002    0.6339   -1.4554 H   0  0  0  0  0  0  0  0  0  0  0  0
   -3.7826    2.8114    1.7300 H   0  0  0  0  0  0  0  0  0  0  0  0
   -6.2776   -0.0335    0.6682 H   0  0  0  0  0  0  0  0  0  0  0  0
   -3.0335    0.2689   -1.6843 H   0  0  0  0  0  0  0  0  0  0  0  0
   -2.5446   -2.0028   -0.2598 H   0  0  0  0  0  0  0  0  0  0  0  0
   -3.5202    4.7950    0.2807 H   0  0  0  0  0  0  0  0  0  0  0  0
   -7.4943   -1.8408   -0.5019 H   0  0  0  0  0  0  0  0  0  0  0  0
   -2.8028    2.2430   -3.1006 H   0  0  0  0  0  0  0  0  0  0  0  0
   -3.7673   -3.7810   -1.3985 H   0  0  0  0  0  0  0  0  0  0  0  0
  1 33  1  0  0  0  0
  2 34  1  0  0  0  0
  3 16  2  0  0  0  0
  4 10  1  0  0  0  0
  4 11  1  0  0  0  0
  4 12  1  0  0  0  0
  5  7  1  0  0  0  0
  5 14  1  0  0  0  0
  5 16  1  0  0  0  0
  6 16  1  0  0  0  0
  6 18  1  0  0  0  0
  6 51  1  0  0  0  0
  7  8  1  0  0  0  0
  7  9  1  0  0  0  0
  7 35  1  0  0  0  0
  8 10  1  0  0  0  0
  8 36  1  0  0  0  0
  8 37  1  0  0  0  0
  9 11  1  0  0  0  0
  9 38  1  0  0  0  0
  9 39  1  0  0  0  0
 10 40  1  0  0  0  0
 10 41  1  0  0  0  0
 11 42  1  0  0  0  0
 11 43  1  0  0  0  0
 12 13  1  0  0  0  0
 12 44  1  0  0  0  0
 12 45  1  0  0  0  0
 13 15  1  0  0  0  0
 13 46  1  0  0  0  0
 13 47  1  0  0  0  0
 14 18  1  0  0  0  0
 14 19  2  0  0  0  0
 15 17  1  0  0  0  0
 15 48  1  0  0  0  0
 15 49  1  0  0  0  0
 17 20  1  0  0  0  0
 17 21  1  0  0  0  0
 17 50  1  0  0  0  0
 18 22  2  0  0  0  0
 19 23  1  0  0  0  0
 19 52  1  0  0  0  0
 20 25  2  0  0  0  0
 20 27  1  0  0  0  0
 21 26  2  0  0  0  0
 21 28  1  0  0  0  0
 22 24  1  0  0  0  0
 22 53  1  0  0  0  0
 23 24  2  0  0  0  0
 23 54  1  0  0  0  0
 24 55  1  0  0  0  0
 25 29  1  0  0  0  0
 25 56  1  0  0  0  0
 26 30  1  0  0  0  0
 26 57  1  0  0  0  0
 27 31  2  0  0  0  0
 27 58  1  0  0  0  0
 28 32  2  0  0  0  0
 28 59  1  0  0  0  0
 29 33  2  0  0  0  0
 29 60  1  0  0  0  0
 30 34  2  0  0  0  0
 30 61  1  0  0  0  0
 31 33  1  0  0  0  0
 31 62  1  0  0  0  0
 32 34  1  0  0  0  0
 32 63  1  0  0  0  0
M  END
> <PUBCHEM_COMPOUND_CID>
16362

> <PUBCHEM_CONFORMER_RMSD>
1

> <PUBCHEM_CONFORMER_DIVERSEORDER>
2
18
67
38
66
29
35
3
39
55
59
64
79
21
13
27
48
77
75
44
87
51
15
47
1
83
70
31
86
88
68
82
65
49
30
40
5
71
24
69
50
14
45
73
54
72
16
85
84
28
33
22
80
42
60
11
17
61
57
26
62
8
46
76
78
6
43
23
52
19
56
58
53
9
25
20
34
74
41
81
37
63
32
7
36
10
12
4

> <PUBCHEM_MMFF94_PARTIAL_CHARGES>
43
1 -0.19
10 0.27
11 0.27
12 0.27
14 0.12
16 0.69
17 0.29
18 0.12
19 -0.15
2 -0.19
20 -0.14
21 -0.14
22 -0.15
23 -0.15
24 -0.15
25 -0.15
26 -0.15
27 -0.15
28 -0.15
29 -0.15
3 -0.57
30 -0.15
31 -0.15
32 -0.15
33 0.19
34 0.19
4 -0.81
5 -0.48
51 0.37
52 0.15
53 0.15
54 0.15
55 0.15
56 0.15
57 0.15
58 0.15
59 0.15
6 -0.55
60 0.15
61 0.15
62 0.15
63 0.15
7 0.3

> <PUBCHEM_EFFECTIVE_ROTOR_COUNT>
8.2

> <PUBCHEM_PHARMACOPHORE_FEATURES>
8
1 3 acceptor
1 4 cation
1 6 donor
5 5 6 14 16 18 rings
6 14 18 19 22 23 24 rings
6 20 25 27 29 31 33 rings
6 21 26 28 30 32 34 rings
6 4 7 8 9 10 11 rings

> <PUBCHEM_HEAVY_ATOM_COUNT>
34

> <PUBCHEM_ATOM_DEF_STEREO_COUNT>
0

> <PUBCHEM_ATOM_UDEF_STEREO_COUNT>
0

> <PUBCHEM_BOND_DEF_STEREO_COUNT>
0

> <PUBCHEM_BOND_UDEF_STEREO_COUNT>
0

> <PUBCHEM_ISOTOPIC_ATOM_COUNT>
0

> <PUBCHEM_COMPONENT_COUNT>
1

> <PUBCHEM_CACTVS_TAUTO_COUNT>
2

> <PUBCHEM_CONFORMER_ID>
00003FEA00000002

> <PUBCHEM_MMFF94_ENERGY>
93.9189

> <PUBCHEM_FEATURE_SELFOVERLAP>
40.699

> <PUBCHEM_SHAPE_FINGERPRINT>
10764073 3 17131846361334106449
10794284 68 18113908114208755025
10928967 22 14907891627270476556
11377469 6 15985115114885119250
11434127 23 18333169461815477502
11477941 20 18260827128894686669
11505856 67 17824250519971090501
11607047 141 17907583876914932483
117089 54 17770500043438397503
12013929 27 18130518491534093182
12107698 1 18187362164125481604
12633257 1 12607401109185074955
12728209 76 18410572916722881436
12788726 201 18041265609584774195
13103583 49 12319731471104987696
13540713 5 17387393663328046025
13636023 20 18410009906465708848
13673619 4 17988362680312511787
13690498 29 18413387648624232147
13947930 73 16701183147916789815
14118638 360 17967812721878970754
14556957 393 17458888380690421791
14910302 57 18201993335813700123
15264996 154 16472881863280202671
15274700 21 18060135470769014495
15975801 100 18409156706126879703
16708801 149 17313399915624887796
16991981 162 18119241771204087305
21033650 10 18336268955076425409
21223535 225 16951974934326300790
21599406 157 18201163157316307006
22122407 14 12251909213021531390
22393880 68 18412822456718975464
23516275 100 17898567842053530716
249057 25 17458889462842839600
25269216 80 18409168831467857003
2838139 119 17821734914659695936
3388396 114 17168133542388371773
3610482 184 17677061117950889069
437795 51 16701736168343542258
439807 62 17632304479346093026
44249763 50 18336254661763529580
46194498 28 18271518810106975400
497634 4 18060145336192556473
6058803 2 17316455342294317329
6371009 1 16732988643574785052
6608658 132 17894625946505352285
999808 66 16558758931146002731

> <PUBCHEM_SHAPE_MULTIPOLES>
664.34
20.04
3.99
2.69
27.08
2.55
1.63
-7.39
-11.63
-10.09
-3.38
0.27
0.33
0.41

> <PUBCHEM_SHAPE_SELFOVERLAP>
1448.23

> <PUBCHEM_SHAPE_VOLUME>
362.6

> <PUBCHEM_COORDINATE_TYPE>
2
5
10

$$$$