38
 OpenBabel03292021453D

 98101  0  0  1  0  0  0  0  0999 V2000
   15.5673   -4.9045    1.1437 C   0  0  0  0  0  0  0  0  0  0  0  0
   14.2294   -4.5746    1.8152 C   0  0  0  0  0  0  0  0  0  0  0  0
   14.3876   -3.3024    2.6522 C   0  0  0  0  0  0  0  0  0  0  0  0
   13.0324   -4.4874    0.8779 C   0  0  0  0  0  0  0  0  0  0  0  0
   11.7863   -4.6968    1.2708 N   0  0  0  0  0  0  0  0  0  0  0  0
   10.8845   -4.5653    0.2071 C   0  0  0  0  0  0  0  0  0  0  0  0
    9.3908   -4.6464    0.4528 C   0  0  0  0  0  0  0  0  0  0  0  0
    8.8313   -5.9953    0.2941 N   0  0  0  0  0  0  0  0  0  0  0  0
    9.3955   -7.0376    1.1461 C   0  0  0  0  0  0  0  0  0  0  0  0
    7.5553   -6.1111   -0.2627 C   0  0  0  0  0  0  0  0  0  0  0  0
    6.9150   -5.1475   -0.6903 O   0  0  0  0  0  0  0  0  0  0  0  0
    7.0320   -7.3787   -0.2941 N   0  0  0  0  0  0  0  0  0  0  0  0
    5.6848   -7.6980   -0.8294 C   0  0  2  0  0  0  0  0  0  0  0  0
    4.6315   -7.5413    0.3191 C   0  0  0  0  0  0  0  0  0  0  0  0
    3.4397   -7.3353    0.1052 O   0  0  0  0  0  0  0  0  0  0  0  0
    5.1147   -7.7885    1.5845 N   0  0  0  0  0  0  0  0  0  0  0  0
    4.3163   -7.7125    2.8115 C   0  0  1  0  0  0  0  0  0  0  0  0
    3.4820   -9.0068    3.0669 C   0  0  0  0  0  0  0  0  0  0  0  0
    4.2260  -10.3122    3.2802 C   0  0  0  0  0  0  0  0  0  0  0  0
    4.2674  -10.9255    4.5420 C   0  0  0  0  0  0  0  0  0  0  0  0
    4.8898  -12.1678    4.7138 C   0  0  0  0  0  0  0  0  0  0  0  0
    5.4841  -12.8103    3.6300 C   0  0  0  0  0  0  0  0  0  0  0  0
    5.4462  -12.2171    2.3717 C   0  0  0  0  0  0  0  0  0  0  0  0
    4.8126  -10.9827    2.1985 C   0  0  0  0  0  0  0  0  0  0  0  0
    5.2087   -7.3461    4.0245 C   0  0  0  0  0  0  0  0  0  0  0  0
    5.9263   -5.9589    4.0016 C   0  0  2  0  0  0  0  0  0  0  0  0
    6.6924   -5.8512    2.8001 O   0  0  0  0  0  0  0  0  0  0  0  0
    4.9869   -4.7337    4.1609 C   0  0  2  0  0  0  0  0  0  0  0  0
    5.6014   -3.3117    3.9282 C   0  0  0  0  0  0  0  0  0  0  0  0
    6.8739   -2.7288    4.5165 C   0  0  0  0  0  0  0  0  0  0  0  0
    7.6034   -1.8095    3.7210 C   0  0  0  0  0  0  0  0  0  0  0  0
    8.7248   -1.1305    4.2080 C   0  0  0  0  0  0  0  0  0  0  0  0
    9.1414   -1.3388    5.5145 C   0  0  0  0  0  0  0  0  0  0  0  0
    8.4262   -2.2222    6.3247 C   0  0  0  0  0  0  0  0  0  0  0  0
    7.3007   -2.9064    5.8324 C   0  0  0  0  0  0  0  0  0  0  0  0
    4.0181   -4.8400    5.2549 N   0  0  0  0  0  0  0  0  0  0  0  0
    4.2245   -5.2214    6.5428 C   0  0  0  0  0  0  0  0  0  0  0  0
    5.2983   -5.3613    7.1000 O   0  0  0  0  0  0  0  0  0  0  0  0
    3.0116   -5.4557    7.0998 O   0  0  0  0  0  0  0  0  0  0  0  0
    2.9643   -5.5937    8.5280 C   0  0  0  0  0  0  0  0  0  0  0  0
    2.8452   -7.0306    8.9123 C   0  0  0  0  0  0  0  0  0  0  0  0
    3.8398   -7.9167    9.2810 C   0  0  0  0  0  0  0  0  0  0  0  0
    3.4134   -9.1507    9.7385 N   0  0  0  0  0  0  0  0  0  0  0  0
    2.1002   -9.1941    9.7083 C   0  0  0  0  0  0  0  0  0  0  0  0
    1.3158   -7.7956    9.0966 S   0  0  0  0  0  0  0  0  0  0  0  0
    5.6697   -9.1352   -1.4229 C   0  0  0  0  0  0  0  0  0  0  0  0
    4.3154   -9.5271   -2.0301 C   0  0  0  0  0  0  0  0  0  0  0  0
    6.7428   -9.3144   -2.5078 C   0  0  0  0  0  0  0  0  0  0  0  0
   11.4951   -4.2692   -0.9976 C   0  0  0  0  0  0  0  0  0  0  0  0
   13.1880   -4.1030   -0.7934 S   0  0  0  0  0  0  0  0  0  0  0  0
   16.3379   -5.0900    1.9020 H   0  0  0  0  0  0  0  0  0  0  0  0
   15.9276   -4.0776    0.5199 H   0  0  0  0  0  0  0  0  0  0  0  0
   15.4984   -5.7997    0.5176 H   0  0  0  0  0  0  0  0  0  0  0  0
   14.0110   -5.3983    2.5083 H   0  0  0  0  0  0  0  0  0  0  0  0
   14.7681   -2.4684    2.0516 H   0  0  0  0  0  0  0  0  0  0  0  0
   15.1021   -3.4728    3.4672 H   0  0  0  0  0  0  0  0  0  0  0  0
   13.4398   -2.9899    3.1015 H   0  0  0  0  0  0  0  0  0  0  0  0
    8.8933   -3.9481   -0.2312 H   0  0  0  0  0  0  0  0  0  0  0  0
    9.1624   -4.3098    1.4713 H   0  0  0  0  0  0  0  0  0  0  0  0
   10.1810   -6.6463    1.7954 H   0  0  0  0  0  0  0  0  0  0  0  0
    9.8067   -7.8224    0.5056 H   0  0  0  0  0  0  0  0  0  0  0  0
    8.6167   -7.4637    1.7844 H   0  0  0  0  0  0  0  0  0  0  0  0
    7.6028   -8.1485    0.0214 H   0  0  0  0  0  0  0  0  0  0  0  0
    5.4379   -6.9601   -1.6009 H   0  0  0  0  0  0  0  0  0  0  0  0
    6.1069   -7.9646    1.6807 H   0  0  0  0  0  0  0  0  0  0  0  0
    3.5824   -6.9106    2.6617 H   0  0  0  0  0  0  0  0  0  0  0  0
    2.7867   -9.1643    2.2306 H   0  0  0  0  0  0  0  0  0  0  0  0
    2.8373   -8.8303    3.9393 H   0  0  0  0  0  0  0  0  0  0  0  0
    3.7925  -10.4587    5.4026 H   0  0  0  0  0  0  0  0  0  0  0  0
    4.8986  -12.6413    5.6930 H   0  0  0  0  0  0  0  0  0  0  0  0
    5.9605  -13.7789    3.7632 H   0  0  0  0  0  0  0  0  0  0  0  0
    5.8898  -12.7249    1.5194 H   0  0  0  0  0  0  0  0  0  0  0  0
    4.7465  -10.5621    1.2011 H   0  0  0  0  0  0  0  0  0  0  0  0
    5.9930   -8.1104    4.0995 H   0  0  0  0  0  0  0  0  0  0  0  0
    4.6100   -7.4278    4.9381 H   0  0  0  0  0  0  0  0  0  0  0  0
    6.6470   -5.9544    4.8263 H   0  0  0  0  0  0  0  0  0  0  0  0
    6.0770   -5.6897    2.0583 H   0  0  0  0  0  0  0  0  0  0  0  0
    4.3108   -4.8058    3.2944 H   0  0  0  0  0  0  0  0  0  0  0  0
    5.7499   -3.2625    2.8378 H   0  0  0  0  0  0  0  0  0  0  0  0
    4.8140   -2.5722    4.1413 H   0  0  0  0  0  0  0  0  0  0  0  0
    7.2845   -1.5952    2.7024 H   0  0  0  0  0  0  0  0  0  0  0  0
    9.2602   -0.4295    3.5695 H   0  0  0  0  0  0  0  0  0  0  0  0
   10.0083   -0.8108    5.9035 H   0  0  0  0  0  0  0  0  0  0  0  0
    8.7420   -2.3669    7.3555 H   0  0  0  0  0  0  0  0  0  0  0  0
    6.7604   -3.5558    6.5123 H   0  0  0  0  0  0  0  0  0  0  0  0
    3.0371   -4.7893    5.0161 H   0  0  0  0  0  0  0  0  0  0  0  0
    2.0749   -5.0444    8.8575 H   0  0  0  0  0  0  0  0  0  0  0  0
    3.8221   -5.1200    9.0162 H   0  0  0  0  0  0  0  0  0  0  0  0
    4.9017   -7.6987    9.2728 H   0  0  0  0  0  0  0  0  0  0  0  0
    1.5431  -10.0576   10.0512 H   0  0  0  0  0  0  0  0  0  0  0  0
    5.8943   -9.8508   -0.6237 H   0  0  0  0  0  0  0  0  0  0  0  0
    4.0294   -8.8491   -2.8415 H   0  0  0  0  0  0  0  0  0  0  0  0
    3.5171   -9.5305   -1.2831 H   0  0  0  0  0  0  0  0  0  0  0  0
    4.3607  -10.5409   -2.4474 H   0  0  0  0  0  0  0  0  0  0  0  0
    6.5819   -8.6240   -3.3424 H   0  0  0  0  0  0  0  0  0  0  0  0
    6.7212  -10.3352   -2.9075 H   0  0  0  0  0  0  0  0  0  0  0  0
    7.7489   -9.1475   -2.1125 H   0  0  0  0  0  0  0  0  0  0  0  0
   11.0323   -4.1046   -1.9599 H   0  0  0  0  0  0  0  0  0  0  0  0
  1  2  1  0  0  0  0
  1 51  1  0  0  0  0
  1 52  1  0  0  0  0
  1 53  1  0  0  0  0
  2  3  1  0  0  0  0
  2  4  1  0  0  0  0
  2 54  1  0  0  0  0
  3 55  1  0  0  0  0
  3 56  1  0  0  0  0
  3 57  1  0  0  0  0
  4  5  2  0  0  0  0
  4 50  1  0  0  0  0
  5  6  1  0  0  0  0
  6  7  1  0  0  0  0
  6 49  2  0  0  0  0
  7  8  1  0  0  0  0
  7 58  1  0  0  0  0
  7 59  1  0  0  0  0
  8  9  1  0  0  0  0
  8 10  1  0  0  0  0
  9 60  1  0  0  0  0
  9 61  1  0  0  0  0
  9 62  1  0  0  0  0
 10 11  2  0  0  0  0
 10 12  1  0  0  0  0
 12 63  1  0  0  0  0
 13 46  1  0  0  0  0
 13 14  1  0  0  0  0
 13 12  1  0  0  0  0
 13 64  1  6  0  0  0
 14 15  2  0  0  0  0
 14 16  1  0  0  0  0
 16 17  1  0  0  0  0
 16 65  1  0  0  0  0
 17 18  1  0  0  0  0
 17 25  1  0  0  0  0
 17 66  1  6  0  0  0
 18 19  1  0  0  0  0
 18 67  1  0  0  0  0
 18 68  1  0  0  0  0
 19 20  1  0  0  0  0
 19 24  2  0  0  0  0
 20 21  2  0  0  0  0
 20 69  1  0  0  0  0
 21 22  1  0  0  0  0
 21 70  1  0  0  0  0
 22 23  2  0  0  0  0
 22 71  1  0  0  0  0
 23 24  1  0  0  0  0
 23 72  1  0  0  0  0
 24 73  1  0  0  0  0
 25 74  1  0  0  0  0
 25 75  1  0  0  0  0
 26 27  1  0  0  0  0
 26 25  1  0  0  0  0
 26 76  1  6  0  0  0
 27 77  1  0  0  0  0
 28 36  1  0  0  0  0
 28 29  1  0  0  0  0
 28 26  1  0  0  0  0
 28 78  1  6  0  0  0
 29 30  1  0  0  0  0
 29 79  1  0  0  0  0
 29 80  1  0  0  0  0
 30 31  1  0  0  0  0
 30 35  2  0  0  0  0
 31 32  2  0  0  0  0
 31 81  1  0  0  0  0
 32 33  1  0  0  0  0
 32 82  1  0  0  0  0
 33 34  2  0  0  0  0
 33 83  1  0  0  0  0
 34 35  1  0  0  0  0
 34 84  1  0  0  0  0
 35 85  1  0  0  0  0
 36 37  1  0  0  0  0
 36 86  1  0  0  0  0
 37 38  2  0  0  0  0
 37 39  1  0  0  0  0
 39 40  1  0  0  0  0
 40 41  1  0  0  0  0
 40 87  1  0  0  0  0
 40 88  1  0  0  0  0
 41 42  2  0  0  0  0
 41 45  1  0  0  0  0
 42 43  1  0  0  0  0
 42 89  1  0  0  0  0
 43 44  2  0  0  0  0
 44 45  1  0  0  0  0
 44 90  1  0  0  0  0
 46 47  1  0  0  0  0
 46 48  1  0  0  0  0
 46 91  1  0  0  0  0
 47 92  1  0  0  0  0
 47 93  1  0  0  0  0
 47 94  1  0  0  0  0
 48 95  1  0  0  0  0
 48 96  1  0  0  0  0
 48 97  1  0  0  0  0
 49 50  1  0  0  0  0
 49 98  1  0  0  0  0
M  END
>  <Energy>
-19.1042

$$$$