39
 OpenBabel03292021453D

168171  0  0  1  0  0  0  0  0999 V2000
    2.3150    1.1492    2.9545 C   0  0  0  0  0  0  0  0  0  0  0  0
    1.7507    1.6822    1.6419 C   0  0  0  0  0  0  0  0  0  0  0  0
    1.7790    0.7950    0.3767 C   0  0  2  0  0  0  0  0  0  0  0  0
    3.3510    0.5891    0.1287 C   0  0  0  0  0  0  0  0  0  0  0  0
    0.7188   -0.5342   -0.0107 C   0  0  2  0  0  0  0  0  0  0  0  0
   -0.8919   -0.7914    0.8272 N   0  0  0  0  0  0  0  0  0  0  0  0
   -2.6024   -1.8107    0.6773 C   0  0  0  0  0  0  0  0  0  0  0  0
   -2.9004   -2.8272   -0.0827 O   0  0  0  0  0  0  0  0  0  0  0  0
   -4.2771   -1.6664    1.2852 C   0  0  2  0  0  0  0  0  0  0  0  0
   -5.5782   -1.7728    0.3272 C   0  0  0  0  0  0  0  0  0  0  0  0
   -6.2600   -0.4416    0.5211 C   0  0  0  0  0  0  0  0  0  0  0  0
   -5.9535   -0.1538    2.0061 C   0  0  0  0  0  0  0  0  0  0  0  0
   -4.9319   -1.1376    2.4486 N   0  0  0  0  0  0  0  0  0  0  0  0
   -5.1741   -1.9824    3.5729 C   0  0  0  0  0  0  0  0  0  0  0  0
   -5.5914   -1.4872    4.5941 O   0  0  0  0  0  0  0  0  0  0  0  0
   -4.9220   -3.5766    3.4681 C   0  0  2  0  0  0  0  0  0  0  0  0
   -5.5349   -4.4515    4.6006 C   0  0  0  0  0  0  0  0  0  0  0  0
   -7.0306   -4.4345    4.7318 C   0  0  0  0  0  0  0  0  0  0  0  0
   -7.8427   -5.3938    4.1179 C   0  0  0  0  0  0  0  0  0  0  0  0
   -9.2306   -5.3169    4.2459 C   0  0  0  0  0  0  0  0  0  0  0  0
   -9.8143   -4.2913    4.9869 C   0  0  0  0  0  0  0  0  0  0  0  0
   -9.0052   -3.3553    5.6339 C   0  0  0  0  0  0  0  0  0  0  0  0
   -7.6315   -3.4373    5.5174 C   0  0  0  0  0  0  0  0  0  0  0  0
   -3.4615   -3.9570    3.3343 N   0  0  0  0  0  0  0  0  0  0  0  0
   -2.6496   -3.7814    4.5314 C   0  0  0  0  0  0  0  0  0  0  0  0
   -3.0725   -4.6827    2.1969 C   0  0  0  0  0  0  0  0  0  0  0  0
   -3.9676   -5.0416    1.4265 O   0  0  0  0  0  0  0  0  0  0  0  0
   -1.5807   -5.0923    1.8868 C   0  0  2  0  0  0  0  0  0  0  0  0
   -0.7913   -4.3798    0.7226 C   0  0  0  0  0  0  0  0  0  0  0  0
   -0.7887   -2.8197    0.6683 C   0  0  0  0  0  0  0  0  0  0  0  0
   -1.2082   -2.1973    2.2883 C   0  0  0  0  0  0  0  0  0  0  0  0
   -2.1617   -0.6875    2.4958 C   0  0  0  0  0  0  0  0  0  0  0  0
   -2.6213    0.2977    1.0282 C   0  0  0  0  0  0  0  0  0  0  0  0
   -2.1685   -0.2707   -0.6309 C   0  0  0  0  0  0  0  0  0  0  0  0
   -1.2518   -1.8248   -0.8361 C   0  0  0  0  0  0  0  0  0  0  0  0
   -1.5524   -6.5609    1.6926 N   0  0  0  0  0  0  0  0  0  0  0  0
   -1.9882   -7.3607    0.6723 C   0  0  0  0  0  0  0  0  0  0  0  0
   -1.4899   -8.4947    0.6878 O   0  0  0  0  0  0  0  0  0  0  0  0
   -3.0300   -6.9308   -0.4281 C   0  0  2  0  0  0  0  0  0  0  0  0
   -4.4604   -7.5714   -0.2812 C   0  0  0  0  0  0  0  0  0  0  0  0
   -5.4243   -6.9685   -1.3207 C   0  0  0  0  0  0  0  0  0  0  0  0
   -5.1264   -7.5026    1.0965 C   0  0  0  0  0  0  0  0  0  0  0  0
   -2.4680   -7.2849   -1.7937 N   0  0  0  0  0  0  0  0  0  0  0  0
   -2.3988   -8.7229   -2.0583 C   0  0  0  0  0  0  0  0  0  0  0  0
   -2.0620   -6.2356   -2.6078 C   0  0  0  0  0  0  0  0  0  0  0  0
   -1.9796   -5.1126   -2.0931 O   0  0  0  0  0  0  0  0  0  0  0  0
   -1.7772   -6.2082   -4.1461 C   0  0  1  0  0  0  0  0  0  0  0  0
   -1.3705   -7.5352   -4.7941 C   0  0  1  0  0  0  0  0  0  0  0  0
   -2.5952   -8.4310   -4.9833 C   0  0  0  0  0  0  0  0  0  0  0  0
   -0.6800   -7.3769   -6.1653 C   0  0  0  0  0  0  0  0  0  0  0  0
   -0.2432   -8.7386   -6.7084 C   0  0  0  0  0  0  0  0  0  0  0  0
   -2.8832   -5.6022   -4.8938 O   0  0  0  0  0  0  0  0  0  0  0  0
   -2.9986   -4.3030   -5.3205 C   0  0  0  0  0  0  0  0  0  0  0  0
   -3.5275   -4.0865   -6.4084 O   0  0  0  0  0  0  0  0  0  0  0  0
   -2.6369   -3.1413   -4.3854 C   0  0  2  0  0  0  0  0  0  0  0  0
   -3.9107   -2.6015   -3.6149 C   0  0  0  0  0  0  0  0  0  0  0  0
   -5.0909   -1.9920   -4.3724 C   0  0  0  0  0  0  0  0  0  0  0  0
   -4.4927   -3.6951   -2.7103 C   0  0  0  0  0  0  0  0  0  0  0  0
   -3.5008   -1.4908   -2.8077 O   0  0  0  0  0  0  0  0  0  0  0  0
   -1.8110   -2.0931   -5.0801 N   0  0  0  0  0  0  0  0  0  0  0  0
   -2.4584   -1.0199   -5.8051 C   0  0  0  0  0  0  0  0  0  0  0  0
   -0.4422   -2.2912   -5.2029 C   0  0  0  0  0  0  0  0  0  0  0  0
    0.0745   -3.3972   -5.0642 O   0  0  0  0  0  0  0  0  0  0  0  0
    0.4541   -1.0502   -5.3951 C   0  0  2  0  0  0  0  0  0  0  0  0
    1.7070   -1.3483   -6.2087 C   0  0  0  0  0  0  0  0  0  0  0  0
    1.3990   -2.0326   -7.5558 C   0  0  0  0  0  0  0  0  0  0  0  0
    0.5950   -1.1460   -8.5058 C   0  0  0  0  0  0  0  0  0  0  0  0
    2.7000   -2.4751   -8.2149 C   0  0  0  0  0  0  0  0  0  0  0  0
    0.7646   -0.4117   -4.1289 N   0  0  0  0  0  0  0  0  0  0  0  0
    1.7066   -0.6366   -3.1825 C   0  0  0  0  0  0  0  0  0  0  0  0
    2.0951    0.4535   -2.7319 O   0  0  0  0  0  0  0  0  0  0  0  0
    2.4057   -1.9896   -2.6722 C   0  0  2  0  0  0  0  0  0  0  0  0
    1.9737   -3.4525   -2.4337 C   0  0  0  0  0  0  0  0  0  0  0  0
    2.6181   -4.7108   -2.9895 C   0  0  0  0  0  0  0  0  0  0  0  0
    0.5123   -3.5820   -2.3477 C   0  0  0  0  0  0  0  0  0  0  0  0
    2.7111   -1.5842   -1.2331 N   0  0  0  0  0  0  0  0  0  0  0  0
    1.7899   -1.6564   -0.1590 C   0  0  0  0  0  0  0  0  0  0  0  0
    2.1031   -2.3923    0.7725 O   0  0  0  0  0  0  0  0  0  0  0  0
    3.3974    1.3333    3.0380 H   0  0  0  0  0  0  0  0  0  0  0  0
    2.1337    0.0851    3.1051 H   0  0  0  0  0  0  0  0  0  0  0  0
    1.8631    1.7093    3.7813 H   0  0  0  0  0  0  0  0  0  0  0  0
    2.4210    2.5352    1.4122 H   0  0  0  0  0  0  0  0  0  0  0  0
    0.7769    2.1499    1.7709 H   0  0  0  0  0  0  0  0  0  0  0  0
    1.5074    1.5062   -0.4194 H   0  0  0  0  0  0  0  0  0  0  0  0
    3.7786   -0.2294    0.7239 H   0  0  0  0  0  0  0  0  0  0  0  0
    3.9430    1.4775    0.3879 H   0  0  0  0  0  0  0  0  0  0  0  0
    3.6154    0.4483   -0.9229 H   0  0  0  0  0  0  0  0  0  0  0  0
    0.3765   -0.2574   -1.0290 H   0  0  0  0  0  0  0  0  0  0  0  0
   -0.6097   -0.3064    1.6713 H   0  0  0  0  0  0  0  0  0  0  0  0
   -4.3221   -2.7311    1.4715 H   0  0  0  0  0  0  0  0  0  0  0  0
   -6.2930   -2.5175    0.7424 H   0  0  0  0  0  0  0  0  0  0  0  0
   -5.4659   -2.0478   -0.7133 H   0  0  0  0  0  0  0  0  0  0  0  0
   -7.3412   -0.4650    0.3034 H   0  0  0  0  0  0  0  0  0  0  0  0
   -5.8185    0.2871   -0.1677 H   0  0  0  0  0  0  0  0  0  0  0  0
   -6.8629   -0.2236    2.6071 H   0  0  0  0  0  0  0  0  0  0  0  0
   -5.5365    0.8534    2.0691 H   0  0  0  0  0  0  0  0  0  0  0  0
   -5.4728   -3.8962    2.5744 H   0  0  0  0  0  0  0  0  0  0  0  0
   -5.2202   -5.4960    4.4436 H   0  0  0  0  0  0  0  0  0  0  0  0
   -5.1251   -4.1815    5.5778 H   0  0  0  0  0  0  0  0  0  0  0  0
   -7.4052   -6.2117    3.5477 H   0  0  0  0  0  0  0  0  0  0  0  0
   -9.8640   -6.0578    3.7652 H   0  0  0  0  0  0  0  0  0  0  0  0
  -10.8914   -4.2105    5.0669 H   0  0  0  0  0  0  0  0  0  0  0  0
   -9.4441   -2.5573    6.2269 H   0  0  0  0  0  0  0  0  0  0  0  0
   -7.0070   -2.7156    6.0436 H   0  0  0  0  0  0  0  0  0  0  0  0
   -3.2650   -3.5709    5.4045 H   0  0  0  0  0  0  0  0  0  0  0  0
   -2.0320   -2.8969    4.4548 H   0  0  0  0  0  0  0  0  0  0  0  0
   -2.0459   -4.6691    4.7170 H   0  0  0  0  0  0  0  0  0  0  0  0
   -1.0025   -4.9448    2.8044 H   0  0  0  0  0  0  0  0  0  0  0  0
    0.2509   -4.7220    0.7527 H   0  0  0  0  0  0  0  0  0  0  0  0
   -1.2040   -4.7443   -0.1979 H   0  0  0  0  0  0  0  0  0  0  0  0
   -0.7725   -2.6469    3.1985 H   0  0  0  0  0  0  0  0  0  0  0  0
   -2.3848   -0.3258    3.4887 H   0  0  0  0  0  0  0  0  0  0  0  0
   -3.2322    1.1770    1.1749 H   0  0  0  0  0  0  0  0  0  0  0  0
   -2.6450    0.2325   -1.4796 H   0  0  0  0  0  0  0  0  0  0  0  0
   -1.4977   -2.3680   -1.7574 H   0  0  0  0  0  0  0  0  0  0  0  0
   -0.8161   -7.0490    2.1923 H   0  0  0  0  0  0  0  0  0  0  0  0
   -3.1415   -5.8514   -0.3974 H   0  0  0  0  0  0  0  0  0  0  0  0
   -4.3870   -8.6428   -0.4934 H   0  0  0  0  0  0  0  0  0  0  0  0
   -5.5630   -5.8948   -1.1541 H   0  0  0  0  0  0  0  0  0  0  0  0
   -6.4095   -7.4436   -1.2641 H   0  0  0  0  0  0  0  0  0  0  0  0
   -5.0578   -7.1061   -2.3428 H   0  0  0  0  0  0  0  0  0  0  0  0
   -5.6510   -6.5562    1.2622 H   0  0  0  0  0  0  0  0  0  0  0  0
   -4.4183   -7.6757    1.9098 H   0  0  0  0  0  0  0  0  0  0  0  0
   -5.9010   -8.2756    1.1684 H   0  0  0  0  0  0  0  0  0  0  0  0
   -2.3869   -9.3095   -1.1393 H   0  0  0  0  0  0  0  0  0  0  0  0
   -1.5006   -8.9912   -2.6032 H   0  0  0  0  0  0  0  0  0  0  0  0
   -3.3137   -9.0428   -2.5585 H   0  0  0  0  0  0  0  0  0  0  0  0
   -0.9095   -5.5509   -4.2662 H   0  0  0  0  0  0  0  0  0  0  0  0
   -0.6286   -8.0016   -4.1335 H   0  0  0  0  0  0  0  0  0  0  0  0
   -3.0336   -8.3276   -5.9771 H   0  0  0  0  0  0  0  0  0  0  0  0
   -3.3989   -8.1720   -4.2957 H   0  0  0  0  0  0  0  0  0  0  0  0
   -2.3132   -9.4786   -4.8313 H   0  0  0  0  0  0  0  0  0  0  0  0
    0.1979   -6.7257   -6.0819 H   0  0  0  0  0  0  0  0  0  0  0  0
   -1.3630   -6.9047   -6.8815 H   0  0  0  0  0  0  0  0  0  0  0  0
    0.3686   -9.2733   -5.9735 H   0  0  0  0  0  0  0  0  0  0  0  0
    0.3365   -8.6271   -7.6275 H   0  0  0  0  0  0  0  0  0  0  0  0
   -1.1078   -9.3692   -6.9430 H   0  0  0  0  0  0  0  0  0  0  0  0
   -1.9516   -3.5235   -3.6408 H   0  0  0  0  0  0  0  0  0  0  0  0
   -5.8844   -1.7339   -3.6539 H   0  0  0  0  0  0  0  0  0  0  0  0
   -5.5135   -2.6586   -5.1213 H   0  0  0  0  0  0  0  0  0  0  0  0
   -4.8556   -1.0160   -4.8052 H   0  0  0  0  0  0  0  0  0  0  0  0
   -5.3914   -3.3541   -2.1961 H   0  0  0  0  0  0  0  0  0  0  0  0
   -3.8070   -3.9516   -1.9094 H   0  0  0  0  0  0  0  0  0  0  0  0
   -4.7692   -4.5933   -3.2617 H   0  0  0  0  0  0  0  0  0  0  0  0
   -3.8655   -1.6339   -1.9160 H   0  0  0  0  0  0  0  0  0  0  0  0
   -3.4451   -1.3187   -6.1436 H   0  0  0  0  0  0  0  0  0  0  0  0
   -1.9132   -0.7993   -6.7212 H   0  0  0  0  0  0  0  0  0  0  0  0
   -2.4852   -0.1220   -5.1813 H   0  0  0  0  0  0  0  0  0  0  0  0
   -0.0995   -0.2825   -5.9266 H   0  0  0  0  0  0  0  0  0  0  0  0
    2.2620   -0.4131   -6.3906 H   0  0  0  0  0  0  0  0  0  0  0  0
    2.3807   -1.9875   -5.6257 H   0  0  0  0  0  0  0  0  0  0  0  0
    0.8135   -2.9399   -7.3738 H   0  0  0  0  0  0  0  0  0  0  0  0
    1.1313   -0.2236   -8.7471 H   0  0  0  0  0  0  0  0  0  0  0  0
   -0.3684   -0.8643   -8.0807 H   0  0  0  0  0  0  0  0  0  0  0  0
    0.3784   -1.6780   -9.4374 H   0  0  0  0  0  0  0  0  0  0  0  0
    3.3149   -1.6137   -8.4922 H   0  0  0  0  0  0  0  0  0  0  0  0
    2.4899   -3.0594   -9.1157 H   0  0  0  0  0  0  0  0  0  0  0  0
    3.2792   -3.1068   -7.5331 H   0  0  0  0  0  0  0  0  0  0  0  0
    0.6124    0.5781   -4.1281 H   0  0  0  0  0  0  0  0  0  0  0  0
    3.3587   -2.0011   -3.2227 H   0  0  0  0  0  0  0  0  0  0  0  0
    2.2977   -3.6506   -1.4030 H   0  0  0  0  0  0  0  0  0  0  0  0
    2.0985   -5.1319   -3.8513 H   0  0  0  0  0  0  0  0  0  0  0  0
    2.5334   -5.4837   -2.1993 H   0  0  0  0  0  0  0  0  0  0  0  0
    3.6843   -4.5932   -3.1768 H   0  0  0  0  0  0  0  0  0  0  0  0
    0.0768   -4.2825   -3.0335 H   0  0  0  0  0  0  0  0  0  0  0  0
    0.1012   -2.6012   -2.5282 H   0  0  0  0  0  0  0  0  0  0  0  0
    0.2831   -3.9456   -1.3590 H   0  0  0  0  0  0  0  0  0  0  0  0
    3.5807   -2.0283   -0.9759 H   0  0  0  0  0  0  0  0  0  0  0  0
  1  2  1  0  0  0  0
  1 79  1  0  0  0  0
  1 80  1  0  0  0  0
  1 81  1  0  0  0  0
  2 82  1  0  0  0  0
  2 83  1  0  0  0  0
  3  4  1  0  0  0  0
  3  2  1  0  0  0  0
  3 84  1  1  0  0  0
  4 85  1  0  0  0  0
  4 86  1  0  0  0  0
  4 87  1  0  0  0  0
  5  6  1  0  0  0  0
  5 77  1  0  0  0  0
  5  3  1  0  0  0  0
  5 88  1  6  0  0  0
  6  7  1  0  0  0  0
  6 89  1  0  0  0  0
  7  8  2  0  0  0  0
  7  9  1  0  0  0  0
  9 10  1  0  0  0  0
  9 13  1  0  0  0  0
  9 90  1  1  0  0  0
 10 11  1  0  0  0  0
 10 91  1  0  0  0  0
 10 92  1  0  0  0  0
 11 12  1  0  0  0  0
 11 93  1  0  0  0  0
 11 94  1  0  0  0  0
 12 13  1  0  0  0  0
 12 95  1  0  0  0  0
 12 96  1  0  0  0  0
 13 14  1  0  0  0  0
 14 15  2  0  0  0  0
 14 16  1  0  0  0  0
 16 24  1  0  0  0  0
 16 17  1  0  0  0  0
 16 97  1  6  0  0  0
 17 18  1  0  0  0  0
 17 98  1  0  0  0  0
 17 99  1  0  0  0  0
 18 19  1  0  0  0  0
 18 23  2  0  0  0  0
 19 20  2  0  0  0  0
 19100  1  0  0  0  0
 20 21  1  0  0  0  0
 20101  1  0  0  0  0
 21 22  2  0  0  0  0
 21102  1  0  0  0  0
 22 23  1  0  0  0  0
 22103  1  0  0  0  0
 23104  1  0  0  0  0
 24 25  1  0  0  0  0
 24 26  1  0  0  0  0
 25105  1  0  0  0  0
 25106  1  0  0  0  0
 25107  1  0  0  0  0
 26 27  2  0  0  0  0
 26 28  1  0  0  0  0
 28 36  1  0  0  0  0
 28 29  1  0  0  0  0
 28108  1  1  0  0  0
 29 30  1  0  0  0  0
 29109  1  0  0  0  0
 29110  1  0  0  0  0
 30 31  1  0  0  0  0
 30 35  2  0  0  0  0
 31 32  2  0  0  0  0
 31111  1  0  0  0  0
 32 33  1  0  0  0  0
 32112  1  0  0  0  0
 33 34  2  0  0  0  0
 33113  1  0  0  0  0
 34 35  1  0  0  0  0
 34114  1  0  0  0  0
 35115  1  0  0  0  0
 36 37  1  0  0  0  0
 36116  1  0  0  0  0
 37 38  2  0  0  0  0
 37 39  1  0  0  0  0
 39 43  1  0  0  0  0
 39 40  1  0  0  0  0
 39117  1  1  0  0  0
 40 41  1  0  0  0  0
 40 42  1  0  0  0  0
 40118  1  0  0  0  0
 41119  1  0  0  0  0
 41120  1  0  0  0  0
 41121  1  0  0  0  0
 42122  1  0  0  0  0
 42123  1  0  0  0  0
 42124  1  0  0  0  0
 43 44  1  0  0  0  0
 43 45  1  0  0  0  0
 44125  1  0  0  0  0
 44126  1  0  0  0  0
 44127  1  0  0  0  0
 45 46  2  0  0  0  0
 45 47  1  0  0  0  0
 47 48  1  0  0  0  0
 47 52  1  0  0  0  0
 47128  1  6  0  0  0
 48 49  1  0  0  0  0
 48 50  1  0  0  0  0
 48129  1  1  0  0  0
 49130  1  0  0  0  0
 49131  1  0  0  0  0
 49132  1  0  0  0  0
 50 51  1  0  0  0  0
 50133  1  0  0  0  0
 50134  1  0  0  0  0
 51135  1  0  0  0  0
 51136  1  0  0  0  0
 51137  1  0  0  0  0
 52 53  1  0  0  0  0
 53 54  2  0  0  0  0
 53 55  1  0  0  0  0
 55 60  1  0  0  0  0
 55 56  1  0  0  0  0
 55138  1  1  0  0  0
 56 57  1  0  0  0  0
 56 58  1  0  0  0  0
 56 59  1  0  0  0  0
 57139  1  0  0  0  0
 57140  1  0  0  0  0
 57141  1  0  0  0  0
 58142  1  0  0  0  0
 58143  1  0  0  0  0
 58144  1  0  0  0  0
 59145  1  0  0  0  0
 60 61  1  0  0  0  0
 60 62  1  0  0  0  0
 61146  1  0  0  0  0
 61147  1  0  0  0  0
 61148  1  0  0  0  0
 62 63  2  0  0  0  0
 62 64  1  0  0  0  0
 64 69  1  0  0  0  0
 64 65  1  0  0  0  0
 64149  1  6  0  0  0
 65 66  1  0  0  0  0
 65150  1  0  0  0  0
 65151  1  0  0  0  0
 66 67  1  0  0  0  0
 66 68  1  0  0  0  0
 66152  1  0  0  0  0
 67153  1  0  0  0  0
 67154  1  0  0  0  0
 67155  1  0  0  0  0
 68156  1  0  0  0  0
 68157  1  0  0  0  0
 68158  1  0  0  0  0
 69 70  1  0  0  0  0
 69159  1  0  0  0  0
 70 71  2  0  0  0  0
 70 72  1  0  0  0  0
 72 76  1  0  0  0  0
 72 73  1  0  0  0  0
 72160  1  6  0  0  0
 73 74  1  0  0  0  0
 73 75  1  0  0  0  0
 73161  1  0  0  0  0
 74162  1  0  0  0  0
 74163  1  0  0  0  0
 74164  1  0  0  0  0
 75165  1  0  0  0  0
 75166  1  0  0  0  0
 75167  1  0  0  0  0
 76 77  1  0  0  0  0
 76168  1  0  0  0  0
 77 78  2  0  0  0  0
M  END
>  <Energy>
1580.84

$$$$