44285572
  -OEChem-03242010093D

 58 59  0     1  0  0  0  0  0999 V2000
   -1.8662    1.6699    0.3141 O   0  0  0  0  0  0  0  0  0  0  0  0
   -1.0476   -1.5100    1.3158 O   0  0  0  0  0  0  0  0  0  0  0  0
   -0.6449   -0.5871   -1.6070 O   0  0  0  0  0  0  0  0  0  0  0  0
    0.6446    2.1104   -3.0375 O   0  0  0  0  0  0  0  0  0  0  0  0
   -3.1574   -0.7553    1.8583 O   0  0  0  0  0  0  0  0  0  0  0  0
   -3.9722    2.7032   -0.1653 O   0  0  0  0  0  0  0  0  0  0  0  0
    0.0359   -2.7270   -2.1341 O   0  0  0  0  0  0  0  0  0  0  0  0
    0.7090    1.9852   -0.7146 N   0  0  0  0  0  0  0  0  0  0  0  0
    0.5337    1.2112    0.5484 C   0  0  2  0  0  0  0  0  0  0  0  0
   -0.7959    1.5805    1.2577 C   0  0  2  0  0  0  0  0  0  0  0  0
    1.7464    1.3689    1.4722 C   0  0  0  0  0  0  0  0  0  0  0  0
   -1.2279    0.6042    2.3593 C   0  0  0  0  0  0  0  0  0  0  0  0
    2.9028    0.5306    1.0076 C   0  0  0  0  0  0  0  0  0  0  0  0
   -1.5763   -2.6971    0.6766 C   0  0  1  0  0  0  0  0  0  0  0  0
    0.6266    1.4356   -2.0026 C   0  0  0  0  0  0  0  0  0  0  0  0
   -1.9592   -2.3752   -0.7859 C   0  0  1  0  0  0  0  0  0  0  0  0
    0.9198    3.4300   -0.5939 C   0  0  0  0  0  0  0  0  0  0  0  0
   -1.9401   -0.6220    1.8317 C   0  0  0  0  0  0  0  0  0  0  0  0
    0.5779   -0.0771   -2.1303 C   0  0  0  0  0  0  0  0  0  0  0  0
    3.0442   -0.7785    1.4678 C   0  0  0  0  0  0  0  0  0  0  0  0
    3.8352    1.0609    0.1160 C   0  0  0  0  0  0  0  0  0  0  0  0
   -2.8992    2.5422    0.7622 C   0  0  0  0  0  0  0  0  0  0  0  0
   -0.7468   -1.9501   -1.6013 C   0  0  0  0  0  0  0  0  0  0  0  0
   -0.5207   -3.7877    0.8383 C   0  0  0  0  0  0  0  0  0  0  0  0
   -2.6659   -3.5392   -1.4787 C   0  0  0  0  0  0  0  0  0  0  0  0
    4.1181   -1.5574    1.0366 C   0  0  0  0  0  0  0  0  0  0  0  0
    4.9090    0.2822   -0.3153 C   0  0  0  0  0  0  0  0  0  0  0  0
    5.0505   -1.0269    0.1450 C   0  0  0  0  0  0  0  0  0  0  0  0
   -4.6337    1.4756   -0.4410 C   0  0  0  0  0  0  0  0  0  0  0  0
    0.4630    0.1577    0.2888 H   0  0  0  0  0  0  0  0  0  0  0  0
   -0.6434    2.5629    1.7256 H   0  0  0  0  0  0  0  0  0  0  0  0
    1.5056    1.0525    2.4933 H   0  0  0  0  0  0  0  0  0  0  0  0
    2.0584    2.4128    1.5857 H   0  0  0  0  0  0  0  0  0  0  0  0
   -1.9329    1.0989    3.0392 H   0  0  0  0  0  0  0  0  0  0  0  0
   -0.4012    0.2838    2.9998 H   0  0  0  0  0  0  0  0  0  0  0  0
   -2.4718   -3.0262    1.2199 H   0  0  0  0  0  0  0  0  0  0  0  0
   -2.6605   -1.5302   -0.7908 H   0  0  0  0  0  0  0  0  0  0  0  0
    0.1654    3.8649    0.0653 H   0  0  0  0  0  0  0  0  0  0  0  0
    0.8470    3.9284   -1.5643 H   0  0  0  0  0  0  0  0  0  0  0  0
    1.9176    3.6252   -0.1963 H   0  0  0  0  0  0  0  0  0  0  0  0
    0.6456   -0.3324   -3.1945 H   0  0  0  0  0  0  0  0  0  0  0  0
    1.4399   -0.5121   -1.6125 H   0  0  0  0  0  0  0  0  0  0  0  0
    2.3220   -1.2051    2.1589 H   0  0  0  0  0  0  0  0  0  0  0  0
    3.7442    2.0796   -0.2485 H   0  0  0  0  0  0  0  0  0  0  0  0
   -3.3209    2.2017    1.7137 H   0  0  0  0  0  0  0  0  0  0  0  0
   -2.4790    3.5420    0.9173 H   0  0  0  0  0  0  0  0  0  0  0  0
    0.4413   -3.4847    0.4122 H   0  0  0  0  0  0  0  0  0  0  0  0
   -0.8322   -4.7317    0.3841 H   0  0  0  0  0  0  0  0  0  0  0  0
   -0.3344   -3.9689    1.9031 H   0  0  0  0  0  0  0  0  0  0  0  0
   -2.0153   -4.4130   -1.5849 H   0  0  0  0  0  0  0  0  0  0  0  0
   -2.9818   -3.2494   -2.4872 H   0  0  0  0  0  0  0  0  0  0  0  0
   -3.5575   -3.8411   -0.9198 H   0  0  0  0  0  0  0  0  0  0  0  0
    4.2273   -2.5772    1.3938 H   0  0  0  0  0  0  0  0  0  0  0  0
    5.6356    0.6953   -1.0089 H   0  0  0  0  0  0  0  0  0  0  0  0
    5.8865   -1.6333   -0.1910 H   0  0  0  0  0  0  0  0  0  0  0  0
   -5.4655    1.6798   -1.1205 H   0  0  0  0  0  0  0  0  0  0  0  0
   -5.0346    1.0401    0.4791 H   0  0  0  0  0  0  0  0  0  0  0  0
   -3.9542    0.7709   -0.9291 H   0  0  0  0  0  0  0  0  0  0  0  0
  1 10  1  0  0  0  0
  1 22  1  0  0  0  0
  2 14  1  0  0  0  0
  2 18  1  0  0  0  0
  3 19  1  0  0  0  0
  3 23  1  0  0  0  0
  4 15  2  0  0  0  0
  5 18  2  0  0  0  0
  6 22  1  0  0  0  0
  6 29  1  0  0  0  0
  7 23  2  0  0  0  0
  8  9  1  0  0  0  0
  8 15  1  0  0  0  0
  8 17  1  0  0  0  0
  9 10  1  0  0  0  0
  9 11  1  0  0  0  0
  9 30  1  0  0  0  0
 10 12  1  0  0  0  0
 10 31  1  0  0  0  0
 11 13  1  0  0  0  0
 11 32  1  0  0  0  0
 11 33  1  0  0  0  0
 12 18  1  0  0  0  0
 12 34  1  0  0  0  0
 12 35  1  0  0  0  0
 13 20  2  0  0  0  0
 13 21  1  0  0  0  0
 14 16  1  0  0  0  0
 14 24  1  0  0  0  0
 14 36  1  0  0  0  0
 15 19  1  0  0  0  0
 16 23  1  0  0  0  0
 16 25  1  0  0  0  0
 16 37  1  0  0  0  0
 17 38  1  0  0  0  0
 17 39  1  0  0  0  0
 17 40  1  0  0  0  0
 19 41  1  0  0  0  0
 19 42  1  0  0  0  0
 20 26  1  0  0  0  0
 20 43  1  0  0  0  0
 21 27  2  0  0  0  0
 21 44  1  0  0  0  0
 22 45  1  0  0  0  0
 22 46  1  0  0  0  0
 24 47  1  0  0  0  0
 24 48  1  0  0  0  0
 24 49  1  0  0  0  0
 25 50  1  0  0  0  0
 25 51  1  0  0  0  0
 25 52  1  0  0  0  0
 26 28  2  0  0  0  0
 26 53  1  0  0  0  0
 27 28  1  0  0  0  0
 27 54  1  0  0  0  0
 28 55  1  0  0  0  0
 29 56  1  0  0  0  0
 29 57  1  0  0  0  0
 29 58  1  0  0  0  0
M  END
> <PUBCHEM_COMPOUND_CID>
44285572

> <PUBCHEM_CONFORMER_RMSD>
0.8

> <PUBCHEM_CONFORMER_DIVERSEORDER>
1
37
6
57
49
60
13
14
35
44
47
48
62
32
40
18
4
12
42
21
15
24
20
59
27
10
33
51
16
25
22
50
2
28
61
3
54
23
17
11
45
30
53
26
31
46
43
39
58
55
8
38
41
19
5
56
9
7
36
34
29
52

> <PUBCHEM_MMFF94_PARTIAL_CHARGES>
32
1 -0.56
10 0.28
11 0.14
12 0.06
13 -0.14
14 0.28
15 0.57
16 0.06
17 0.3
18 0.66
19 0.34
2 -0.43
20 -0.15
21 -0.15
22 0.56
23 0.66
26 -0.15
27 -0.15
28 -0.15
29 0.28
3 -0.43
4 -0.57
43 0.15
44 0.15
5 -0.57
53 0.15
54 0.15
55 0.15
6 -0.56
7 -0.57
8 -0.66
9 0.3

> <PUBCHEM_EFFECTIVE_ROTOR_COUNT>
6.8

> <PUBCHEM_PHARMACOPHORE_FEATURES>
6
1 1 acceptor
1 4 acceptor
1 5 acceptor
1 6 acceptor
1 7 acceptor
6 13 20 21 26 27 28 rings

> <PUBCHEM_HEAVY_ATOM_COUNT>
29

> <PUBCHEM_ATOM_DEF_STEREO_COUNT>
4

> <PUBCHEM_ATOM_UDEF_STEREO_COUNT>
0

> <PUBCHEM_BOND_DEF_STEREO_COUNT>
0

> <PUBCHEM_BOND_UDEF_STEREO_COUNT>
0

> <PUBCHEM_ISOTOPIC_ATOM_COUNT>
0

> <PUBCHEM_COMPONENT_COUNT>
1

> <PUBCHEM_CACTVS_TAUTO_COUNT>
8

> <PUBCHEM_CONFORMER_ID>
02A3BE8400000001

> <PUBCHEM_MMFF94_ENERGY>
76.0232

> <PUBCHEM_FEATURE_SELFOVERLAP>
30.483

> <PUBCHEM_SHAPE_FINGERPRINT>
11421498 54 17471014051965686005
12592029 89 17631443463036183993
12633257 1 17059516139066296898
12788726 201 18268136733550892195
13583140 156 17559101293350973112
14114207 22 17825943732716059458
15848702 105 8214155022982622130
19930381 70 17264689114550340254
21304303 64 10666676199051248622
21330990 113 18045495318256219284
23419403 2 16887503836990536463
35225 105 18119525432360790934
484985 159 18199451222023320390

> <PUBCHEM_SHAPE_MULTIPOLES>
550.74
7.18
4.3
2.43
5.55
1.72
0.86
-0.33
-1.29
-3.57
1.03
-0.52
0.04
-1.02

> <PUBCHEM_SHAPE_SELFOVERLAP>
1125.025

> <PUBCHEM_SHAPE_VOLUME>
315.6

> <PUBCHEM_COORDINATE_TYPE>
2
5
10

$$$$