40
 OpenBabel03292021453D

205205  0  0  1  0  0  0  0  0999 V2000
   -0.5707   -2.8313    0.3824 C   0  0  0  0  0  0  0  0  0  0  0  0
    0.4596   -1.7079    0.4170 C   0  0  0  0  0  0  0  0  0  0  0  0
    0.9859   -1.4051   -0.9885 C   0  0  0  0  0  0  0  0  0  0  0  0
   -0.1193   -0.4231    1.0544 C   0  0  0  0  0  0  0  0  0  0  0  0
    0.2179   -0.3017    2.5730 C   0  0  2  0  0  0  0  0  0  0  0  0
   -1.1175   -1.2365    3.4427 N   0  0  0  0  0  0  0  0  0  0  0  0
   -1.7955   -2.1683    4.4676 C   0  0  0  0  0  0  0  0  0  0  0  0
   -2.8088   -2.7164    3.9964 O   0  0  0  0  0  0  0  0  0  0  0  0
   -1.3898   -2.5893    6.1922 C   0  0  2  0  0  0  0  0  0  0  0  0
   -1.4199   -3.8465    7.3409 C   0  0  0  0  0  0  0  0  0  0  0  0
   -1.8130   -3.8983    8.9557 C   0  0  0  0  0  0  0  0  0  0  0  0
   -1.4303   -5.3148    9.5030 C   0  0  0  0  0  0  0  0  0  0  0  0
   -1.1622   -2.9953   10.0599 C   0  0  0  0  0  0  0  0  0  0  0  0
   -1.0486   -1.3891    6.8961 N   0  0  0  0  0  0  0  0  0  0  0  0
   -1.8046   -0.7873    7.9829 C   0  0  0  0  0  0  0  0  0  0  0  0
    0.3039   -1.3247    6.9017 C   0  0  0  0  0  0  0  0  0  0  0  0
    0.9168   -2.1974    7.5166 O   0  0  0  0  0  0  0  0  0  0  0  0
    0.7900   -0.5089    5.6671 C   0  0  1  0  0  0  0  0  0  0  0  0
    0.9443   -1.5161    4.7062 O   0  0  0  0  0  0  0  0  0  0  0  0
   -0.3048    0.7935    5.5629 C   0  0  0  0  0  0  0  0  0  0  0  0
   -1.8411    0.7165    5.2051 C   0  0  0  0  0  0  0  0  0  0  0  0
    0.1051    2.0893    4.8715 C   0  0  0  0  0  0  0  0  0  0  0  0
    2.1848   -0.1964    5.7021 N   0  0  0  0  0  0  0  0  0  0  0  0
    2.9224   -0.9476    6.6012 C   0  0  0  0  0  0  0  0  0  0  0  0
    3.5965   -1.9309    6.2775 O   0  0  0  0  0  0  0  0  0  0  0  0
    2.7705   -0.4003    8.0205 C   0  0  2  0  0  0  0  0  0  0  0  0
    2.1981    0.9887    7.9928 C   0  0  0  0  0  0  0  0  0  0  0  0
    3.8370   -0.7130    8.9118 N   0  0  0  0  0  0  0  0  0  0  0  0
    5.1773   -0.5688    8.8282 C   0  0  0  0  0  0  0  0  0  0  0  0
    5.7910   -1.1601    9.7218 O   0  0  0  0  0  0  0  0  0  0  0  0
    5.9446    0.3638    7.8641 C   0  0  1  0  0  0  0  0  0  0  0  0
    5.4335    0.5023    6.4136 C   0  0  0  0  0  0  0  0  0  0  0  0
    6.4343    1.0251    5.3724 C   0  0  0  0  0  0  0  0  0  0  0  0
    7.2247   -0.1490    4.7754 C   0  0  0  0  0  0  0  0  0  0  0  0
    5.6917    1.7325    4.2309 C   0  0  0  0  0  0  0  0  0  0  0  0
    6.3200    1.5779    8.6471 N   0  0  0  0  0  0  0  0  0  0  0  0
    7.2433    1.3555    9.7427 C   0  0  0  0  0  0  0  0  0  0  0  0
    5.5732    2.7361    8.5704 C   0  0  0  0  0  0  0  0  0  0  0  0
    4.7228    2.8210    7.6666 O   0  0  0  0  0  0  0  0  0  0  0  0
    5.9217    4.0104    9.4111 C   0  0  2  0  0  0  0  0  0  0  0  0
    5.1245    4.7265   10.5375 C   0  0  0  0  0  0  0  0  0  0  0  0
    4.9457    4.6316   12.0498 C   0  0  0  0  0  0  0  0  0  0  0  0
    6.2356    4.6103   12.8324 C   0  0  0  0  0  0  0  0  0  0  0  0
    4.1202    5.9028   12.4332 C   0  0  0  0  0  0  0  0  0  0  0  0
    5.7702    4.9786    8.2499 N   0  0  0  0  0  0  0  0  0  0  0  0
    4.7393    5.8784    8.2814 C   0  0  0  0  0  0  0  0  0  0  0  0
    5.0864    6.9801    8.7184 O   0  0  0  0  0  0  0  0  0  0  0  0
    3.2076    5.6008    7.8350 C   0  0  1  0  0  0  0  0  0  0  0  0
    2.3361    4.3395    8.1643 C   0  0  0  0  0  0  0  0  0  0  0  0
    1.8351    3.6920    9.5123 C   0  0  0  0  0  0  0  0  0  0  0  0
    2.6971    2.6659   10.2771 C   0  0  0  0  0  0  0  0  0  0  0  0
    1.1796    4.6009   10.5402 C   0  0  0  0  0  0  0  0  0  0  0  0
    2.4837    6.9478    7.7735 N   0  0  0  0  0  0  0  0  0  0  0  0
    3.1981    8.0027    7.1038 C   0  0  0  0  0  0  0  0  0  0  0  0
    1.0775    7.0614    7.8030 C   0  0  0  0  0  0  0  0  0  0  0  0
    0.3541    6.2658    8.3891 O   0  0  0  0  0  0  0  0  0  0  0  0
    0.3792    8.3513    7.2623 C   0  0  0  0  0  0  0  0  0  0  0  0
    0.9445    9.1644    6.1638 N   0  0  0  0  0  0  0  0  0  0  0  0
    0.8344   10.6081    6.3138 C   0  0  0  0  0  0  0  0  0  0  0  0
    1.1499    8.5628    4.9143 C   0  0  0  0  0  0  0  0  0  0  0  0
    0.6646    7.4615    4.6592 O   0  0  0  0  0  0  0  0  0  0  0  0
    2.1477    9.2560    3.9062 C   0  0  2  0  0  0  0  0  0  0  0  0
    1.6495    8.9808    2.4636 C   0  0  1  0  0  0  0  0  0  0  0  0
    2.5384    9.5651    1.3703 C   0  0  0  0  0  0  0  0  0  0  0  0
    0.3718    9.6159    2.2811 O   0  0  0  0  0  0  0  0  0  0  0  0
    3.6324    9.0409    4.1101 N   0  0  0  0  0  0  0  0  0  0  0  0
    4.4472    8.0835    3.5256 C   0  0  0  0  0  0  0  0  0  0  0  0
    5.3101    8.4963    2.7448 O   0  0  0  0  0  0  0  0  0  0  0  0
    4.4462    6.5929    3.9896 C   0  0  2  0  0  0  0  0  0  0  0  0
    5.6743    6.3881    5.0132 C   0  0  2  0  0  0  0  0  0  0  0  0
    5.6669    4.9968    5.3759 O   0  0  0  0  0  0  0  0  0  0  0  0
    7.2118    6.7608    4.9832 C   0  0  2  0  0  0  0  0  0  0  0  0
    8.0718    5.9203    4.0163 C   0  0  0  0  0  0  0  0  0  0  0  0
    7.7144    8.2274    4.8971 C   0  0  0  0  0  0  0  0  0  0  0  0
    7.4976    9.2781    5.9584 C   0  0  0  0  0  0  0  0  0  0  0  0
    7.2154    9.1542    7.2655 C   0  0  0  0  0  0  0  0  0  0  0  0
    7.1571   10.3002    8.2452 C   0  0  0  0  0  0  0  0  0  0  0  0
    8.0203   11.3596    7.8504 O   0  0  0  0  0  0  0  0  0  0  0  0
    4.3254    5.4637    2.9361 N   0  0  0  0  0  0  0  0  0  0  0  0
    5.3684    5.5120    1.9247 C   0  0  0  0  0  0  0  0  0  0  0  0
    3.1994    4.5332    2.9501 C   0  0  0  0  0  0  0  0  0  0  0  0
    2.3806    4.6155    3.8876 O   0  0  0  0  0  0  0  0  0  0  0  0
    2.8960    3.3487    1.7903 C   0  0  2  0  0  0  0  0  0  0  0  0
    3.0425    4.0986    0.3904 C   0  0  0  0  0  0  0  0  0  0  0  0
    2.1681    5.3476    0.1793 C   0  0  0  0  0  0  0  0  0  0  0  0
    3.1509    3.2738   -0.8854 C   0  0  0  0  0  0  0  0  0  0  0  0
    1.5548    2.3162    1.8898 N   0  0  0  0  0  0  0  0  0  0  0  0
    0.3764    2.7856    1.1939 C   0  0  0  0  0  0  0  0  0  0  0  0
    1.5217    1.0354    2.6145 C   0  0  0  0  0  0  0  0  0  0  0  0
    2.5374    0.7788    3.2829 O   0  0  0  0  0  0  0  0  0  0  0  0
   -0.0710   -3.7993    0.4909 H   0  0  0  0  0  0  0  0  0  0  0  0
   -1.1204   -2.8397   -0.5644 H   0  0  0  0  0  0  0  0  0  0  0  0
   -1.3003   -2.7518    1.1903 H   0  0  0  0  0  0  0  0  0  0  0  0
    1.3261   -2.0588    0.9918 H   0  0  0  0  0  0  0  0  0  0  0  0
    0.1979   -0.9915   -1.6260 H   0  0  0  0  0  0  0  0  0  0  0  0
    1.3799   -2.3092   -1.4610 H   0  0  0  0  0  0  0  0  0  0  0  0
    1.8019   -0.6723   -0.9438 H   0  0  0  0  0  0  0  0  0  0  0  0
   -1.1958   -0.3222    0.8831 H   0  0  0  0  0  0  0  0  0  0  0  0
    0.3467    0.4046    0.5241 H   0  0  0  0  0  0  0  0  0  0  0  0
    0.9739   -1.0889    2.6819 H   0  0  0  0  0  0  0  0  0  0  0  0
   -1.8100   -1.3102    2.7039 H   0  0  0  0  0  0  0  0  0  0  0  0
   -0.4771   -3.0442    5.7681 H   0  0  0  0  0  0  0  0  0  0  0  0
   -1.8634   -4.7259    6.8686 H   0  0  0  0  0  0  0  0  0  0  0  0
   -0.3514   -4.1074    7.4450 H   0  0  0  0  0  0  0  0  0  0  0  0
   -2.9020   -3.8014    9.0425 H   0  0  0  0  0  0  0  0  0  0  0  0
   -0.3378   -5.4160    9.5804 H   0  0  0  0  0  0  0  0  0  0  0  0
   -1.8105   -6.1227    8.8791 H   0  0  0  0  0  0  0  0  0  0  0  0
   -1.8202   -5.4744   10.5211 H   0  0  0  0  0  0  0  0  0  0  0  0
   -0.0701   -2.9749   10.0032 H   0  0  0  0  0  0  0  0  0  0  0  0
   -1.4021   -3.3907   11.0652 H   0  0  0  0  0  0  0  0  0  0  0  0
   -1.5331   -1.9752   10.1339 H   0  0  0  0  0  0  0  0  0  0  0  0
   -2.4224   -1.5107    8.4892 H   0  0  0  0  0  0  0  0  0  0  0  0
   -2.4901   -0.0285    7.6097 H   0  0  0  0  0  0  0  0  0  0  0  0
   -1.1089   -0.2839    8.6694 H   0  0  0  0  0  0  0  0  0  0  0  0
    0.1124   -1.6920    4.2653 H   0  0  0  0  0  0  0  0  0  0  0  0
   -0.3467    1.1032    6.6156 H   0  0  0  0  0  0  0  0  0  0  0  0
   -2.0568    0.8258    4.1378 H   0  0  0  0  0  0  0  0  0  0  0  0
   -2.3583    1.5612    5.6833 H   0  0  0  0  0  0  0  0  0  0  0  0
   -2.4079   -0.1457    5.5480 H   0  0  0  0  0  0  0  0  0  0  0  0
   -0.2290    2.0930    3.8314 H   0  0  0  0  0  0  0  0  0  0  0  0
    1.1620    2.3093    4.9596 H   0  0  0  0  0  0  0  0  0  0  0  0
   -0.4477    2.9263    5.3174 H   0  0  0  0  0  0  0  0  0  0  0  0
    2.5325   -0.3784    4.7631 H   0  0  0  0  0  0  0  0  0  0  0  0
    1.9836   -0.9303    8.5566 H   0  0  0  0  0  0  0  0  0  0  0  0
    3.0135    1.6691    7.9613 H   0  0  0  0  0  0  0  0  0  0  0  0
    1.5057    1.1126    8.8233 H   0  0  0  0  0  0  0  0  0  0  0  0
    1.6109    1.3166    7.1404 H   0  0  0  0  0  0  0  0  0  0  0  0
    3.6166   -1.4096    9.6171 H   0  0  0  0  0  0  0  0  0  0  0  0
    6.8853   -0.1820    7.7274 H   0  0  0  0  0  0  0  0  0  0  0  0
    4.5078    1.0741    6.3545 H   0  0  0  0  0  0  0  0  0  0  0  0
    5.1951   -0.4981    6.0612 H   0  0  0  0  0  0  0  0  0  0  0  0
    7.1154    1.7355    5.8478 H   0  0  0  0  0  0  0  0  0  0  0  0
    6.6310   -0.6844    4.0224 H   0  0  0  0  0  0  0  0  0  0  0  0
    7.5071   -0.8796    5.5394 H   0  0  0  0  0  0  0  0  0  0  0  0
    8.1347    0.2075    4.2863 H   0  0  0  0  0  0  0  0  0  0  0  0
    6.3975    2.2262    3.5551 H   0  0  0  0  0  0  0  0  0  0  0  0
    5.1000    1.0280    3.6369 H   0  0  0  0  0  0  0  0  0  0  0  0
    4.9999    2.4846    4.6163 H   0  0  0  0  0  0  0  0  0  0  0  0
    7.7913    0.4176    9.5960 H   0  0  0  0  0  0  0  0  0  0  0  0
    6.6784    1.3139   10.6772 H   0  0  0  0  0  0  0  0  0  0  0  0
    7.9726    2.1606    9.7787 H   0  0  0  0  0  0  0  0  0  0  0  0
    6.9771    4.0000    9.6587 H   0  0  0  0  0  0  0  0  0  0  0  0
    5.5749    5.7289   10.5057 H   0  0  0  0  0  0  0  0  0  0  0  0
    4.1039    4.8147   10.1750 H   0  0  0  0  0  0  0  0  0  0  0  0
    4.3693    3.7603   12.3536 H   0  0  0  0  0  0  0  0  0  0  0  0
    6.8418    5.4970   12.6265 H   0  0  0  0  0  0  0  0  0  0  0  0
    6.8128    3.7162   12.5899 H   0  0  0  0  0  0  0  0  0  0  0  0
    6.0048    4.5983   13.9035 H   0  0  0  0  0  0  0  0  0  0  0  0
    4.7654    6.7837   12.5339 H   0  0  0  0  0  0  0  0  0  0  0  0
    3.5652    5.7627   13.3626 H   0  0  0  0  0  0  0  0  0  0  0  0
    3.3874    6.1699   11.6621 H   0  0  0  0  0  0  0  0  0  0  0  0
    6.6445    5.5115    8.1901 H   0  0  0  0  0  0  0  0  0  0  0  0
    3.3729    5.4324    6.7584 H   0  0  0  0  0  0  0  0  0  0  0  0
    2.7437    3.5373    7.5532 H   0  0  0  0  0  0  0  0  0  0  0  0
    1.4079    4.4921    7.5870 H   0  0  0  0  0  0  0  0  0  0  0  0
    0.9927    3.0775    9.1641 H   0  0  0  0  0  0  0  0  0  0  0  0
    3.2727    3.1056   11.0614 H   0  0  0  0  0  0  0  0  0  0  0  0
    3.4148    2.0966    9.7031 H   0  0  0  0  0  0  0  0  0  0  0  0
    2.0555    1.9364   10.7883 H   0  0  0  0  0  0  0  0  0  0  0  0
    1.6822    5.5601   10.6115 H   0  0  0  0  0  0  0  0  0  0  0  0
    1.1750    4.1306   11.5329 H   0  0  0  0  0  0  0  0  0  0  0  0
    0.1283    4.7592   10.2858 H   0  0  0  0  0  0  0  0  0  0  0  0
    4.2730    8.0095    7.1700 H   0  0  0  0  0  0  0  0  0  0  0  0
    2.8849    8.9833    7.4639 H   0  0  0  0  0  0  0  0  0  0  0  0
    3.0081    7.8376    6.0573 H   0  0  0  0  0  0  0  0  0  0  0  0
    0.3166    8.9862    8.1547 H   0  0  0  0  0  0  0  0  0  0  0  0
   -0.6421    8.0735    6.9694 H   0  0  0  0  0  0  0  0  0  0  0  0
    0.2027   10.8626    7.1716 H   0  0  0  0  0  0  0  0  0  0  0  0
    0.3808   11.0434    5.4200 H   0  0  0  0  0  0  0  0  0  0  0  0
    1.8312   11.0286    6.4733 H   0  0  0  0  0  0  0  0  0  0  0  0
    2.0255   10.3342    4.0713 H   0  0  0  0  0  0  0  0  0  0  0  0
    1.5276    7.9071    2.2898 H   0  0  0  0  0  0  0  0  0  0  0  0
    2.6918   10.6391    1.5204 H   0  0  0  0  0  0  0  0  0  0  0  0
    2.0628    9.4448    0.3915 H   0  0  0  0  0  0  0  0  0  0  0  0
    3.5101    9.0778    1.3079 H   0  0  0  0  0  0  0  0  0  0  0  0
   -0.2748    9.1511    2.8445 H   0  0  0  0  0  0  0  0  0  0  0  0
    4.0860    9.9286    3.9190 H   0  0  0  0  0  0  0  0  0  0  0  0
    3.5461    6.4772    4.5860 H   0  0  0  0  0  0  0  0  0  0  0  0
    5.3510    6.9248    5.8986 H   0  0  0  0  0  0  0  0  0  0  0  0
    5.2244    4.5083    4.6608 H   0  0  0  0  0  0  0  0  0  0  0  0
    7.5651    6.4140    5.9700 H   0  0  0  0  0  0  0  0  0  0  0  0
    8.1829    6.4107    3.0446 H   0  0  0  0  0  0  0  0  0  0  0  0
    7.6824    4.9096    3.8690 H   0  0  0  0  0  0  0  0  0  0  0  0
    9.0860    5.8122    4.4207 H   0  0  0  0  0  0  0  0  0  0  0  0
    8.8162    8.1724    4.8458 H   0  0  0  0  0  0  0  0  0  0  0  0
    7.4225    8.6546    3.9356 H   0  0  0  0  0  0  0  0  0  0  0  0
    7.6888   10.2907    5.5943 H   0  0  0  0  0  0  0  0  0  0  0  0
    7.0442    8.1743    7.7002 H   0  0  0  0  0  0  0  0  0  0  0  0
    7.4703    9.9751    9.2427 H   0  0  0  0  0  0  0  0  0  0  0  0
    6.1393   10.6938    8.3187 H   0  0  0  0  0  0  0  0  0  0  0  0
    8.9194   10.9874    7.8319 H   0  0  0  0  0  0  0  0  0  0  0  0
    6.2497    6.0141    2.3123 H   0  0  0  0  0  0  0  0  0  0  0  0
    5.0322    6.1273    1.0836 H   0  0  0  0  0  0  0  0  0  0  0  0
    5.6631    4.5078    1.6161 H   0  0  0  0  0  0  0  0  0  0  0  0
    3.7383    2.6574    1.9039 H   0  0  0  0  0  0  0  0  0  0  0  0
    4.0434    4.5102    0.4079 H   0  0  0  0  0  0  0  0  0  0  0  0
    1.2141    5.1125   -0.2972 H   0  0  0  0  0  0  0  0  0  0  0  0
    2.6850    6.0595   -0.4806 H   0  0  0  0  0  0  0  0  0  0  0  0
    1.9719    5.8859    1.1099 H   0  0  0  0  0  0  0  0  0  0  0  0
    2.1947    2.8827   -1.2286 H   0  0  0  0  0  0  0  0  0  0  0  0
    3.8680    2.4575   -0.7641 H   0  0  0  0  0  0  0  0  0  0  0  0
    3.5409    3.9145   -1.6921 H   0  0  0  0  0  0  0  0  0  0  0  0
    0.2331    3.8519    1.3878 H   0  0  0  0  0  0  0  0  0  0  0  0
   -0.5183    2.2504    1.5094 H   0  0  0  0  0  0  0  0  0  0  0  0
    0.5207    2.6283    0.1232 H   0  0  0  0  0  0  0  0  0  0  0  0
  1  2  1  0  0  0  0
  1 91  1  0  0  0  0
  1 92  1  0  0  0  0
  1 93  1  0  0  0  0
  2  3  1  0  0  0  0
  2  4  1  0  0  0  0
  2 94  1  0  0  0  0
  3 95  1  0  0  0  0
  3 96  1  0  0  0  0
  3 97  1  0  0  0  0
  4  5  1  0  0  0  0
  4 98  1  0  0  0  0
  4 99  1  0  0  0  0
  5  6  1  0  0  0  0
  5 89  1  0  0  0  0
  5100  1  1  0  0  0
  6  7  1  0  0  0  0
  6101  1  0  0  0  0
  7  8  2  0  0  0  0
  7  9  1  0  0  0  0
  9 14  1  0  0  0  0
  9 10  1  0  0  0  0
  9102  1  6  0  0  0
 10 11  1  0  0  0  0
 10103  1  0  0  0  0
 10104  1  0  0  0  0
 11 12  1  0  0  0  0
 11 13  1  0  0  0  0
 11105  1  0  0  0  0
 12106  1  0  0  0  0
 12107  1  0  0  0  0
 12108  1  0  0  0  0
 13109  1  0  0  0  0
 13110  1  0  0  0  0
 13111  1  0  0  0  0
 14 15  1  0  0  0  0
 14 16  1  0  0  0  0
 15112  1  0  0  0  0
 15113  1  0  0  0  0
 15114  1  0  0  0  0
 16 17  2  0  0  0  0
 16 18  1  0  0  0  0
 18 23  1  0  0  0  0
 18 20  1  0  0  0  0
 18 19  1  6  0  0  0
 19115  1  0  0  0  0
 20 21  1  0  0  0  0
 20 22  1  0  0  0  0
 20116  1  0  0  0  0
 21117  1  0  0  0  0
 21118  1  0  0  0  0
 21119  1  0  0  0  0
 22120  1  0  0  0  0
 22121  1  0  0  0  0
 22122  1  0  0  0  0
 23 24  1  0  0  0  0
 23123  1  0  0  0  0
 24 25  2  0  0  0  0
 24 26  1  0  0  0  0
 26 28  1  0  0  0  0
 26 27  1  0  0  0  0
 26124  1  1  0  0  0
 27125  1  0  0  0  0
 27126  1  0  0  0  0
 27127  1  0  0  0  0
 28 29  1  0  0  0  0
 28128  1  0  0  0  0
 29 30  2  0  0  0  0
 29 31  1  0  0  0  0
 31 32  1  0  0  0  0
 31 36  1  0  0  0  0
 31129  1  6  0  0  0
 32 33  1  0  0  0  0
 32130  1  0  0  0  0
 32131  1  0  0  0  0
 33 34  1  0  0  0  0
 33 35  1  0  0  0  0
 33132  1  0  0  0  0
 34133  1  0  0  0  0
 34134  1  0  0  0  0
 34135  1  0  0  0  0
 35136  1  0  0  0  0
 35137  1  0  0  0  0
 35138  1  0  0  0  0
 36 37  1  0  0  0  0
 36 38  1  0  0  0  0
 37139  1  0  0  0  0
 37140  1  0  0  0  0
 37141  1  0  0  0  0
 38 39  2  0  0  0  0
 38 40  1  0  0  0  0
 40 45  1  0  0  0  0
 40 41  1  0  0  0  0
 40142  1  1  0  0  0
 41 42  1  0  0  0  0
 41143  1  0  0  0  0
 41144  1  0  0  0  0
 42 43  1  0  0  0  0
 42 44  1  0  0  0  0
 42145  1  0  0  0  0
 43146  1  0  0  0  0
 43147  1  0  0  0  0
 43148  1  0  0  0  0
 44149  1  0  0  0  0
 44150  1  0  0  0  0
 44151  1  0  0  0  0
 45 46  1  0  0  0  0
 45152  1  0  0  0  0
 46 47  2  0  0  0  0
 46 48  1  0  0  0  0
 48 49  1  0  0  0  0
 48 53  1  0  0  0  0
 48153  1  6  0  0  0
 49 50  1  0  0  0  0
 49154  1  0  0  0  0
 49155  1  0  0  0  0
 50 51  1  0  0  0  0
 50 52  1  0  0  0  0
 50156  1  0  0  0  0
 51157  1  0  0  0  0
 51158  1  0  0  0  0
 51159  1  0  0  0  0
 52160  1  0  0  0  0
 52161  1  0  0  0  0
 52162  1  0  0  0  0
 53 54  1  0  0  0  0
 53 55  1  0  0  0  0
 54163  1  0  0  0  0
 54164  1  0  0  0  0
 54165  1  0  0  0  0
 55 56  2  0  0  0  0
 55 57  1  0  0  0  0
 57 58  1  0  0  0  0
 57166  1  0  0  0  0
 57167  1  0  0  0  0
 58 59  1  0  0  0  0
 58 60  1  0  0  0  0
 59168  1  0  0  0  0
 59169  1  0  0  0  0
 59170  1  0  0  0  0
 60 61  2  0  0  0  0
 60 62  1  0  0  0  0
 62 66  1  0  0  0  0
 62 63  1  0  0  0  0
 62171  1  1  0  0  0
 63 64  1  0  0  0  0
 63 65  1  0  0  0  0
 63172  1  1  0  0  0
 64173  1  0  0  0  0
 64174  1  0  0  0  0
 64175  1  0  0  0  0
 65176  1  0  0  0  0
 66 67  1  0  0  0  0
 66177  1  0  0  0  0
 67 68  2  0  0  0  0
 67 69  1  0  0  0  0
 69 79  1  0  0  0  0
 69 70  1  0  0  0  0
 69178  1  1  0  0  0
 70 72  1  0  0  0  0
 70 71  1  0  0  0  0
 70179  1  6  0  0  0
 71180  1  0  0  0  0
 72 74  1  0  0  0  0
 72 73  1  0  0  0  0
 72181  1  6  0  0  0
 73182  1  0  0  0  0
 73183  1  0  0  0  0
 73184  1  0  0  0  0
 74 75  1  0  0  0  0
 74185  1  0  0  0  0
 74186  1  0  0  0  0
 75 76  2  0  0  0  0
 75187  1  0  0  0  0
 76 77  1  0  0  0  0
 76188  1  0  0  0  0
 77 78  1  0  0  0  0
 77189  1  0  0  0  0
 77190  1  0  0  0  0
 78191  1  0  0  0  0
 79 80  1  0  0  0  0
 79 81  1  0  0  0  0
 80192  1  0  0  0  0
 80193  1  0  0  0  0
 80194  1  0  0  0  0
 81 82  2  0  0  0  0
 81 83  1  0  0  0  0
 83 87  1  0  0  0  0
 83 84  1  0  0  0  0
 83195  1  1  0  0  0
 84 85  1  0  0  0  0
 84 86  1  0  0  0  0
 84196  1  0  0  0  0
 85197  1  0  0  0  0
 85198  1  0  0  0  0
 85199  1  0  0  0  0
 86200  1  0  0  0  0
 86201  1  0  0  0  0
 86202  1  0  0  0  0
 87 88  1  0  0  0  0
 87 89  1  0  0  0  0
 88203  1  0  0  0  0
 88204  1  0  0  0  0
 88205  1  0  0  0  0
 89 90  2  0  0  0  0
M  END
>  <Energy>
971.411

$$$$