41
 OpenBabel03292021453D

204204  0  0  1  0  0  0  0  0999 V2000
    2.6632   -5.3583   -0.4341 C   0  0  0  0  0  0  0  0  0  0  0  0
    3.8319   -4.6595   -1.0509 C   0  0  0  0  0  0  0  0  0  0  0  0
    4.8780   -5.3053   -1.5869 C   0  0  0  0  0  0  0  0  0  0  0  0
    6.1020   -4.7297   -2.2552 C   0  0  0  0  0  0  0  0  0  0  0  0
    6.1641   -3.2290   -2.6313 C   0  0  1  0  0  0  0  0  0  0  0  0
    4.9390   -2.8723   -3.5212 C   0  0  0  0  0  0  0  0  0  0  0  0
    6.4568   -2.2275   -1.4383 C   0  0  1  0  0  0  0  0  0  0  0  0
    6.1380   -0.8893   -1.8949 O   0  0  0  0  0  0  0  0  0  0  0  0
    7.9096   -2.0616   -0.7671 C   0  0  1  0  0  0  0  0  0  0  0  0
    8.2386   -2.7441    0.7074 C   0  0  0  0  0  0  0  0  0  0  0  0
    8.6785   -3.8862    0.8181 O   0  0  0  0  0  0  0  0  0  0  0  0
    8.0874   -1.8852    1.8347 N   0  0  0  0  0  0  0  0  0  0  0  0
    8.0899   -2.2512    3.3301 C   0  0  1  0  0  0  0  0  0  0  0  0
    6.9814   -1.3745    4.0743 C   0  0  1  0  0  0  0  0  0  0  0  0
    5.6690   -2.1267    4.2633 C   0  0  0  0  0  0  0  0  0  0  0  0
    7.3338   -0.8606    5.3641 O   0  0  0  0  0  0  0  0  0  0  0  0
    9.2342   -2.4215    4.4390 C   0  0  0  0  0  0  0  0  0  0  0  0
    8.8483   -2.8580    5.5410 O   0  0  0  0  0  0  0  0  0  0  0  0
   10.5344   -1.9197    4.3777 N   0  0  0  0  0  0  0  0  0  0  0  0
   10.5393   -0.4588    4.2897 C   0  0  0  0  0  0  0  0  0  0  0  0
   11.4787   -2.4153    5.4581 C   0  0  0  0  0  0  0  0  0  0  0  0
   12.1179   -3.8612    5.5647 C   0  0  0  0  0  0  0  0  0  0  0  0
   13.2397   -3.9925    6.0790 O   0  0  0  0  0  0  0  0  0  0  0  0
   11.4217   -4.9578    5.0928 N   0  0  0  0  0  0  0  0  0  0  0  0
   10.0718   -5.1619    5.5848 C   0  0  0  0  0  0  0  0  0  0  0  0
   12.1320   -6.1834    4.5757 C   0  0  2  0  0  0  0  0  0  0  0  0
   11.1506   -6.7992    3.5296 C   0  0  0  0  0  0  0  0  0  0  0  0
   11.5217   -8.0515    2.7518 C   0  0  0  0  0  0  0  0  0  0  0  0
   10.3264   -8.5301    1.9101 C   0  0  0  0  0  0  0  0  0  0  0  0
   12.6881   -7.8192    1.8164 C   0  0  0  0  0  0  0  0  0  0  0  0
   12.5160   -7.0911    5.7852 C   0  0  0  0  0  0  0  0  0  0  0  0
   11.6509   -7.5576    6.5385 O   0  0  0  0  0  0  0  0  0  0  0  0
   13.8245   -7.2855    6.1844 N   0  0  0  0  0  0  0  0  0  0  0  0
   15.0221   -7.5041    5.3375 C   0  0  1  0  0  0  0  0  0  0  0  0
   16.3607   -7.3286    6.1199 C   0  0  1  0  0  0  0  0  0  0  0  0
   17.5341   -7.0930    5.1459 C   0  0  0  0  0  0  0  0  0  0  0  0
   16.4118   -6.2688    7.2415 C   0  0  0  0  0  0  0  0  0  0  0  0
   17.6932   -6.4126    8.0761 C   0  0  0  0  0  0  0  0  0  0  0  0
   14.8548   -8.9818    4.7872 C   0  0  0  0  0  0  0  0  0  0  0  0
   13.7410   -9.5083    4.7639 O   0  0  0  0  0  0  0  0  0  0  0  0
   15.9303   -9.5953    4.1469 N   0  0  0  0  0  0  0  0  0  0  0  0
   16.8943  -10.3265    4.9637 C   0  0  0  0  0  0  0  0  0  0  0  0
   15.6867  -10.1333    2.7829 C   0  0  2  0  0  0  0  0  0  0  0  0
   15.3901  -11.6477    2.6614 C   0  0  0  0  0  0  0  0  0  0  0  0
   14.0930  -12.1561    3.3236 C   0  0  0  0  0  0  0  0  0  0  0  0
   12.8189  -11.5614    2.7219 C   0  0  0  0  0  0  0  0  0  0  0  0
   14.0024  -13.6768    3.2002 C   0  0  0  0  0  0  0  0  0  0  0  0
   16.8983   -9.7992    1.8628 C   0  0  0  0  0  0  0  0  0  0  0  0
   18.0707   -9.9046    2.2349 O   0  0  0  0  0  0  0  0  0  0  0  0
   16.7099   -9.4328    0.5595 N   0  0  0  0  0  0  0  0  0  0  0  0
   15.5003   -8.8611   -0.0197 C   0  0  1  0  0  0  0  0  0  0  0  0
   15.7938   -7.4884   -0.5669 C   0  0  0  0  0  0  0  0  0  0  0  0
   14.6479   -9.9410   -0.7422 C   0  0  0  0  0  0  0  0  0  0  0  0
   14.1242  -10.8315   -0.0558 O   0  0  0  0  0  0  0  0  0  0  0  0
   14.4348  -10.0999   -2.0636 N   0  0  0  0  0  0  0  0  0  0  0  0
   14.8415   -9.3605   -3.2493 C   0  0  2  0  0  0  0  0  0  0  0  0
   13.9441   -9.8508   -4.2713 O   0  0  0  0  0  0  0  0  0  0  0  0
   16.2373   -9.8173   -3.7378 C   0  0  0  0  0  0  0  0  0  0  0  0
   17.4244   -9.5508   -2.8221 C   0  0  0  0  0  0  0  0  0  0  0  0
   16.2337  -11.3436   -4.0269 C   0  0  0  0  0  0  0  0  0  0  0  0
   14.2623   -7.8971   -3.0270 C   0  0  0  0  0  0  0  0  0  0  0  0
   13.3262   -7.8111   -2.2109 O   0  0  0  0  0  0  0  0  0  0  0  0
   14.6442   -6.7614   -3.7216 N   0  0  0  0  0  0  0  0  0  0  0  0
   15.8938   -6.6728   -4.4596 C   0  0  0  0  0  0  0  0  0  0  0  0
   14.0204   -5.4421   -3.3324 C   0  0  1  0  0  0  0  0  0  0  0  0
   12.4804   -5.4930   -3.2196 C   0  0  0  0  0  0  0  0  0  0  0  0
   11.7724   -6.0645   -4.4680 C   0  0  0  0  0  0  0  0  0  0  0  0
   10.3069   -6.3607   -4.1553 C   0  0  0  0  0  0  0  0  0  0  0  0
   11.8722   -5.0761   -5.6380 C   0  0  0  0  0  0  0  0  0  0  0  0
   14.8745   -4.7884   -2.1990 C   0  0  0  0  0  0  0  0  0  0  0  0
   16.1169   -4.8406   -2.2625 O   0  0  0  0  0  0  0  0  0  0  0  0
   14.4309   -4.0797   -1.1435 N   0  0  0  0  0  0  0  0  0  0  0  0
   13.1142   -3.6132   -0.6833 C   0  0  1  0  0  0  0  0  0  0  0  0
   13.2198   -3.2021    0.7639 C   0  0  0  0  0  0  0  0  0  0  0  0
   13.7915   -4.1449    1.8218 C   0  0  0  0  0  0  0  0  0  0  0  0
   15.2271   -4.6115    1.6588 C   0  0  0  0  0  0  0  0  0  0  0  0
   13.7388   -3.3389    3.1066 C   0  0  0  0  0  0  0  0  0  0  0  0
   12.7511   -2.4432   -1.6543 C   0  0  0  0  0  0  0  0  0  0  0  0
   13.1887   -2.5844   -2.8067 O   0  0  0  0  0  0  0  0  0  0  0  0
   11.9069   -1.3838   -1.3641 N   0  0  0  0  0  0  0  0  0  0  0  0
   11.5856   -0.8758   -0.0244 C   0  0  0  0  0  0  0  0  0  0  0  0
   11.1626   -0.6482   -2.4481 C   0  0  1  0  0  0  0  0  0  0  0  0
   11.5498   -0.8980   -3.9379 C   0  0  0  0  0  0  0  0  0  0  0  0
   10.6283   -0.2208   -4.9500 C   0  0  0  0  0  0  0  0  0  0  0  0
   12.9891   -0.3925   -4.2398 C   0  0  0  0  0  0  0  0  0  0  0  0
    9.6405   -0.7416   -2.0345 C   0  0  0  0  0  0  0  0  0  0  0  0
    9.0258    0.3147   -1.8371 O   0  0  0  0  0  0  0  0  0  0  0  0
    9.0786   -1.9920   -1.7253 N   0  0  0  0  0  0  0  0  0  0  0  0
    9.3332   -3.0870   -2.6301 C   0  0  0  0  0  0  0  0  0  0  0  0
    2.1532   -4.6789    0.2566 H   0  0  0  0  0  0  0  0  0  0  0  0
    2.9759   -6.2385    0.1356 H   0  0  0  0  0  0  0  0  0  0  0  0
    1.9452   -5.6600   -1.2030 H   0  0  0  0  0  0  0  0  0  0  0  0
    3.7838   -3.5774   -1.0362 H   0  0  0  0  0  0  0  0  0  0  0  0
    4.8512   -6.3976   -1.5855 H   0  0  0  0  0  0  0  0  0  0  0  0
    6.2076   -5.2912   -3.1984 H   0  0  0  0  0  0  0  0  0  0  0  0
    6.9743   -5.0039   -1.6555 H   0  0  0  0  0  0  0  0  0  0  0  0
    6.9804   -3.1318   -3.3468 H   0  0  0  0  0  0  0  0  0  0  0  0
    4.0792   -2.5247   -2.9426 H   0  0  0  0  0  0  0  0  0  0  0  0
    4.6113   -3.7275   -4.1262 H   0  0  0  0  0  0  0  0  0  0  0  0
    5.1991   -2.0810   -4.2348 H   0  0  0  0  0  0  0  0  0  0  0  0
    5.7476   -2.4354   -0.6324 H   0  0  0  0  0  0  0  0  0  0  0  0
    5.3513   -0.8861   -2.4588 H   0  0  0  0  0  0  0  0  0  0  0  0
    7.8539   -1.0205   -0.4155 H   0  0  0  0  0  0  0  0  0  0  0  0
    7.4828   -1.0975    1.6294 H   0  0  0  0  0  0  0  0  0  0  0  0
    7.7132   -3.2856    3.2959 H   0  0  0  0  0  0  0  0  0  0  0  0
    6.7862   -0.4665    3.4876 H   0  0  0  0  0  0  0  0  0  0  0  0
    5.7963   -2.9746    4.9488 H   0  0  0  0  0  0  0  0  0  0  0  0
    5.2808   -2.4890    3.3137 H   0  0  0  0  0  0  0  0  0  0  0  0
    4.9222   -1.4704    4.7260 H   0  0  0  0  0  0  0  0  0  0  0  0
    7.5804   -1.6415    5.9484 H   0  0  0  0  0  0  0  0  0  0  0  0
    9.8340   -0.0441    5.0139 H   0  0  0  0  0  0  0  0  0  0  0  0
   10.2499   -0.1396    3.2841 H   0  0  0  0  0  0  0  0  0  0  0  0
   11.5259   -0.0498    4.5227 H   0  0  0  0  0  0  0  0  0  0  0  0
   11.0819   -2.1476    6.4436 H   0  0  0  0  0  0  0  0  0  0  0  0
   12.3849   -1.8027    5.3116 H   0  0  0  0  0  0  0  0  0  0  0  0
    9.3845   -4.9541    4.7612 H   0  0  0  0  0  0  0  0  0  0  0  0
    9.8966   -4.5533    6.4723 H   0  0  0  0  0  0  0  0  0  0  0  0
    9.8893   -6.1914    5.8899 H   0  0  0  0  0  0  0  0  0  0  0  0
   13.0497   -5.8611    4.0839 H   0  0  0  0  0  0  0  0  0  0  0  0
   10.2047   -7.0480    4.0213 H   0  0  0  0  0  0  0  0  0  0  0  0
   10.9047   -6.0096    2.8020 H   0  0  0  0  0  0  0  0  0  0  0  0
   11.7516   -8.8386    3.4716 H   0  0  0  0  0  0  0  0  0  0  0  0
   10.0957   -7.8203    1.1067 H   0  0  0  0  0  0  0  0  0  0  0  0
    9.4276   -8.6499    2.5229 H   0  0  0  0  0  0  0  0  0  0  0  0
   10.5432   -9.4989    1.4460 H   0  0  0  0  0  0  0  0  0  0  0  0
   12.4782   -7.0366    1.0808 H   0  0  0  0  0  0  0  0  0  0  0  0
   12.8736   -8.7356    1.2522 H   0  0  0  0  0  0  0  0  0  0  0  0
   13.5910   -7.5458    2.3666 H   0  0  0  0  0  0  0  0  0  0  0  0
   13.8013   -7.8785    7.0059 H   0  0  0  0  0  0  0  0  0  0  0  0
   14.9727   -6.8182    4.4867 H   0  0  0  0  0  0  0  0  0  0  0  0
   16.5336   -8.2656    6.6516 H   0  0  0  0  0  0  0  0  0  0  0  0
   17.7704   -6.0280    5.0481 H   0  0  0  0  0  0  0  0  0  0  0  0
   17.3361   -7.4639    4.1374 H   0  0  0  0  0  0  0  0  0  0  0  0
   18.4348   -7.6024    5.5081 H   0  0  0  0  0  0  0  0  0  0  0  0
   15.5620   -6.3891    7.9210 H   0  0  0  0  0  0  0  0  0  0  0  0
   16.3601   -5.2574    6.8242 H   0  0  0  0  0  0  0  0  0  0  0  0
   17.7789   -7.4245    8.4897 H   0  0  0  0  0  0  0  0  0  0  0  0
   17.6944   -5.7085    8.9131 H   0  0  0  0  0  0  0  0  0  0  0  0
   18.5922   -6.2198    7.4813 H   0  0  0  0  0  0  0  0  0  0  0  0
   16.8441  -10.0412    6.0122 H   0  0  0  0  0  0  0  0  0  0  0  0
   17.9071  -10.1509    4.5948 H   0  0  0  0  0  0  0  0  0  0  0  0
   16.6722  -11.3935    4.9465 H   0  0  0  0  0  0  0  0  0  0  0  0
   14.8184   -9.5942    2.4194 H   0  0  0  0  0  0  0  0  0  0  0  0
   15.3678  -11.9225    1.6016 H   0  0  0  0  0  0  0  0  0  0  0  0
   16.2409  -12.2150    3.0563 H   0  0  0  0  0  0  0  0  0  0  0  0
   14.1274  -11.9154    4.3913 H   0  0  0  0  0  0  0  0  0  0  0  0
   12.6478  -11.9091    1.6991 H   0  0  0  0  0  0  0  0  0  0  0  0
   12.8590  -10.4808    2.6966 H   0  0  0  0  0  0  0  0  0  0  0  0
   11.9431  -11.8431    3.3176 H   0  0  0  0  0  0  0  0  0  0  0  0
   13.9453  -13.9822    2.1495 H   0  0  0  0  0  0  0  0  0  0  0  0
   13.1062  -14.0485    3.7085 H   0  0  0  0  0  0  0  0  0  0  0  0
   14.8735  -14.1587    3.6525 H   0  0  0  0  0  0  0  0  0  0  0  0
   17.5863   -9.2488    0.0894 H   0  0  0  0  0  0  0  0  0  0  0  0
   14.8779   -8.5955    0.8252 H   0  0  0  0  0  0  0  0  0  0  0  0
   16.2667   -7.4915   -1.5385 H   0  0  0  0  0  0  0  0  0  0  0  0
   16.4752   -6.9437    0.0962 H   0  0  0  0  0  0  0  0  0  0  0  0
   14.8707   -6.9113   -0.6189 H   0  0  0  0  0  0  0  0  0  0  0  0
   13.8728  -10.9238   -2.2264 H   0  0  0  0  0  0  0  0  0  0  0  0
   13.0920  -10.0055   -3.8311 H   0  0  0  0  0  0  0  0  0  0  0  0
   16.4530   -9.3561   -4.7030 H   0  0  0  0  0  0  0  0  0  0  0  0
   17.3324  -10.1037   -1.8861 H   0  0  0  0  0  0  0  0  0  0  0  0
   17.5716   -8.4930   -2.6191 H   0  0  0  0  0  0  0  0  0  0  0  0
   18.3510   -9.8959   -3.2942 H   0  0  0  0  0  0  0  0  0  0  0  0
   15.9771  -11.9229   -3.1322 H   0  0  0  0  0  0  0  0  0  0  0  0
   17.2189  -11.6812   -4.3647 H   0  0  0  0  0  0  0  0  0  0  0  0
   15.5182  -11.6047   -4.8136 H   0  0  0  0  0  0  0  0  0  0  0  0
   15.9714   -7.4959   -5.1640 H   0  0  0  0  0  0  0  0  0  0  0  0
   16.7322   -6.7033   -3.7603 H   0  0  0  0  0  0  0  0  0  0  0  0
   15.9395   -5.7426   -5.0318 H   0  0  0  0  0  0  0  0  0  0  0  0
   14.2144   -4.7702   -4.1796 H   0  0  0  0  0  0  0  0  0  0  0  0
   12.0829   -4.4944   -3.0794 H   0  0  0  0  0  0  0  0  0  0  0  0
   12.1538   -6.0197   -2.3190 H   0  0  0  0  0  0  0  0  0  0  0  0
   12.2402   -7.0048   -4.7711 H   0  0  0  0  0  0  0  0  0  0  0  0
    9.7652   -5.4541   -3.8830 H   0  0  0  0  0  0  0  0  0  0  0  0
   10.2244   -7.0726   -3.3289 H   0  0  0  0  0  0  0  0  0  0  0  0
    9.8088   -6.7984   -5.0269 H   0  0  0  0  0  0  0  0  0  0  0  0
   11.4795   -4.0923   -5.3595 H   0  0  0  0  0  0  0  0  0  0  0  0
   11.3024   -5.4340   -6.5005 H   0  0  0  0  0  0  0  0  0  0  0  0
   12.9092   -4.9446   -5.9610 H   0  0  0  0  0  0  0  0  0  0  0  0
   15.2184   -3.5992   -0.7256 H   0  0  0  0  0  0  0  0  0  0  0  0
   12.3901   -4.4158   -0.8003 H   0  0  0  0  0  0  0  0  0  0  0  0
   12.1995   -2.9811    1.1019 H   0  0  0  0  0  0  0  0  0  0  0  0
   13.8180   -2.2841    0.8078 H   0  0  0  0  0  0  0  0  0  0  0  0
   13.1391   -5.0166    1.9079 H   0  0  0  0  0  0  0  0  0  0  0  0
   15.9105   -3.7681    1.5318 H   0  0  0  0  0  0  0  0  0  0  0  0
   15.3236   -5.2761    0.8106 H   0  0  0  0  0  0  0  0  0  0  0  0
   15.5484   -5.1812    2.5377 H   0  0  0  0  0  0  0  0  0  0  0  0
   14.2656   -2.3828    3.0269 H   0  0  0  0  0  0  0  0  0  0  0  0
   14.1907   -3.8902    3.9278 H   0  0  0  0  0  0  0  0  0  0  0  0
   12.6946   -3.1130    3.3114 H   0  0  0  0  0  0  0  0  0  0  0  0
   12.4358   -0.9014    0.6483 H   0  0  0  0  0  0  0  0  0  0  0  0
   10.7489   -1.4377    0.3924 H   0  0  0  0  0  0  0  0  0  0  0  0
   11.3054    0.1815   -0.0829 H   0  0  0  0  0  0  0  0  0  0  0  0
   11.4194    0.4037   -2.2725 H   0  0  0  0  0  0  0  0  0  0  0  0
   11.4905   -1.9679   -4.1621 H   0  0  0  0  0  0  0  0  0  0  0  0
   10.7065    0.8701   -4.8937 H   0  0  0  0  0  0  0  0  0  0  0  0
    9.5831   -0.5069   -4.8069 H   0  0  0  0  0  0  0  0  0  0  0  0
   10.9175   -0.5210   -5.9661 H   0  0  0  0  0  0  0  0  0  0  0  0
   12.9998    0.6462   -4.5832 H   0  0  0  0  0  0  0  0  0  0  0  0
   13.4427   -1.0088   -5.0253 H   0  0  0  0  0  0  0  0  0  0  0  0
   13.6535   -0.4240   -3.3704 H   0  0  0  0  0  0  0  0  0  0  0  0
   10.3967   -3.2578   -2.7406 H   0  0  0  0  0  0  0  0  0  0  0  0
    8.9584   -2.8086   -3.6229 H   0  0  0  0  0  0  0  0  0  0  0  0
    8.8679   -4.0052   -2.2788 H   0  0  0  0  0  0  0  0  0  0  0  0
  1  2  1  0  0  0  0
  1 90  1  0  0  0  0
  1 91  1  0  0  0  0
  1 92  1  0  0  0  0
  2  3  2  0  0  0  0
  2 93  1  0  0  0  0
  3  4  1  0  0  0  0
  3 94  1  0  0  0  0
  4  5  1  0  0  0  0
  4 95  1  0  0  0  0
  4 96  1  0  0  0  0
  5  6  1  0  0  0  0
  5  7  1  0  0  0  0
  5 97  1  6  0  0  0
  6 98  1  0  0  0  0
  6 99  1  0  0  0  0
  6100  1  0  0  0  0
  7  8  1  0  0  0  0
  7101  1  6  0  0  0
  8102  1  0  0  0  0
  9 10  1  0  0  0  0
  9 88  1  0  0  0  0
  9  7  1  0  0  0  0
  9103  1  1  0  0  0
 10 11  2  0  0  0  0
 10 12  1  0  0  0  0
 12 13  1  0  0  0  0
 12104  1  0  0  0  0
 13 14  1  0  0  0  0
 13 17  1  0  0  0  0
 13105  1  1  0  0  0
 14 15  1  0  0  0  0
 14 16  1  0  0  0  0
 14106  1  6  0  0  0
 15107  1  0  0  0  0
 15108  1  0  0  0  0
 15109  1  0  0  0  0
 16110  1  0  0  0  0
 17 18  2  0  0  0  0
 17 19  1  0  0  0  0
 19 20  1  0  0  0  0
 19 21  1  0  0  0  0
 20111  1  0  0  0  0
 20112  1  0  0  0  0
 20113  1  0  0  0  0
 21 22  1  0  0  0  0
 21114  1  0  0  0  0
 21115  1  0  0  0  0
 22 23  2  0  0  0  0
 22 24  1  0  0  0  0
 24 25  1  0  0  0  0
 24 26  1  0  0  0  0
 25116  1  0  0  0  0
 25117  1  0  0  0  0
 25118  1  0  0  0  0
 26 31  1  0  0  0  0
 26 27  1  0  0  0  0
 26119  1  6  0  0  0
 27 28  1  0  0  0  0
 27120  1  0  0  0  0
 27121  1  0  0  0  0
 28 29  1  0  0  0  0
 28 30  1  0  0  0  0
 28122  1  0  0  0  0
 29123  1  0  0  0  0
 29124  1  0  0  0  0
 29125  1  0  0  0  0
 30126  1  0  0  0  0
 30127  1  0  0  0  0
 30128  1  0  0  0  0
 31 32  2  0  0  0  0
 31 33  1  0  0  0  0
 33 34  1  0  0  0  0
 33129  1  0  0  0  0
 34 35  1  0  0  0  0
 34 39  1  0  0  0  0
 34130  1  6  0  0  0
 35 36  1  0  0  0  0
 35 37  1  0  0  0  0
 35131  1  1  0  0  0
 36132  1  0  0  0  0
 36133  1  0  0  0  0
 36134  1  0  0  0  0
 37 38  1  0  0  0  0
 37135  1  0  0  0  0
 37136  1  0  0  0  0
 38137  1  0  0  0  0
 38138  1  0  0  0  0
 38139  1  0  0  0  0
 39 40  2  0  0  0  0
 39 41  1  0  0  0  0
 41 42  1  0  0  0  0
 41 43  1  0  0  0  0
 42140  1  0  0  0  0
 42141  1  0  0  0  0
 42142  1  0  0  0  0
 43 48  1  0  0  0  0
 43 44  1  0  0  0  0
 43143  1  6  0  0  0
 44 45  1  0  0  0  0
 44144  1  0  0  0  0
 44145  1  0  0  0  0
 45 46  1  0  0  0  0
 45 47  1  0  0  0  0
 45146  1  0  0  0  0
 46147  1  0  0  0  0
 46148  1  0  0  0  0
 46149  1  0  0  0  0
 47150  1  0  0  0  0
 47151  1  0  0  0  0
 47152  1  0  0  0  0
 48 49  2  0  0  0  0
 48 50  1  0  0  0  0
 50 51  1  0  0  0  0
 50153  1  0  0  0  0
 51 52  1  0  0  0  0
 51 53  1  0  0  0  0
 51154  1  1  0  0  0
 52155  1  0  0  0  0
 52156  1  0  0  0  0
 52157  1  0  0  0  0
 53 54  2  0  0  0  0
 53 55  1  0  0  0  0
 55 56  1  0  0  0  0
 55158  1  0  0  0  0
 56 57  1  6  0  0  0
 56 58  1  0  0  0  0
 56 61  1  0  0  0  0
 57159  1  0  0  0  0
 58 59  1  0  0  0  0
 58 60  1  0  0  0  0
 58160  1  0  0  0  0
 59161  1  0  0  0  0
 59162  1  0  0  0  0
 59163  1  0  0  0  0
 60164  1  0  0  0  0
 60165  1  0  0  0  0
 60166  1  0  0  0  0
 61 62  2  0  0  0  0
 61 63  1  0  0  0  0
 63 64  1  0  0  0  0
 63 65  1  0  0  0  0
 64167  1  0  0  0  0
 64168  1  0  0  0  0
 64169  1  0  0  0  0
 65 66  1  0  0  0  0
 65 70  1  0  0  0  0
 65170  1  6  0  0  0
 66 67  1  0  0  0  0
 66171  1  0  0  0  0
 66172  1  0  0  0  0
 67 68  1  0  0  0  0
 67 69  1  0  0  0  0
 67173  1  0  0  0  0
 68174  1  0  0  0  0
 68175  1  0  0  0  0
 68176  1  0  0  0  0
 69177  1  0  0  0  0
 69178  1  0  0  0  0
 69179  1  0  0  0  0
 70 71  2  0  0  0  0
 70 72  1  0  0  0  0
 72 73  1  0  0  0  0
 72180  1  0  0  0  0
 73 74  1  0  0  0  0
 73 78  1  0  0  0  0
 73181  1  6  0  0  0
 74 75  1  0  0  0  0
 74182  1  0  0  0  0
 74183  1  0  0  0  0
 75 76  1  0  0  0  0
 75 77  1  0  0  0  0
 75184  1  0  0  0  0
 76185  1  0  0  0  0
 76186  1  0  0  0  0
 76187  1  0  0  0  0
 77188  1  0  0  0  0
 77189  1  0  0  0  0
 77190  1  0  0  0  0
 78 79  2  0  0  0  0
 78 80  1  0  0  0  0
 80 81  1  0  0  0  0
 80 82  1  0  0  0  0
 81191  1  0  0  0  0
 81192  1  0  0  0  0
 81193  1  0  0  0  0
 82 83  1  0  0  0  0
 82 86  1  0  0  0  0
 82194  1  1  0  0  0
 83 84  1  0  0  0  0
 83 85  1  0  0  0  0
 83195  1  0  0  0  0
 84196  1  0  0  0  0
 84197  1  0  0  0  0
 84198  1  0  0  0  0
 85199  1  0  0  0  0
 85200  1  0  0  0  0
 85201  1  0  0  0  0
 86 87  2  0  0  0  0
 86 88  1  0  0  0  0
 88 89  1  0  0  0  0
 89202  1  0  0  0  0
 89203  1  0  0  0  0
 89204  1  0  0  0  0
M  END
>  <Energy>
523.866

$$$$