43
 OpenBabel03292021463D

195195  0  0  1  0  0  0  0  0999 V2000
    4.3259    7.7742    1.6697 C   0  0  0  0  0  0  0  0  0  0  0  0
    5.7877    7.2803    1.8981 C   0  0  0  0  0  0  0  0  0  0  0  0
    6.3811    6.1885    1.3511 C   0  0  0  0  0  0  0  0  0  0  0  0
    7.7563    5.3288    1.2784 C   0  0  0  0  0  0  0  0  0  0  0  0
    9.3300    4.3963    1.5329 C   0  0  1  0  0  0  0  0  0  0  0  0
    8.8391    3.2199    0.4471 C   0  0  0  0  0  0  0  0  0  0  0  0
   11.1984    4.6071    2.0972 C   0  0  0  0  0  0  0  0  0  0  0  0
   12.9176    5.0170    1.3094 C   0  0  1  0  0  0  0  0  0  0  0  0
   14.8951    4.6208    1.1311 C   0  0  0  0  0  0  0  0  0  0  0  0
   15.1246    3.7843    0.2332 O   0  0  0  0  0  0  0  0  0  0  0  0
   16.4118    5.3355    1.4231 N   0  0  0  0  0  0  0  0  0  0  0  0
   18.3601    5.2025    1.5105 C   0  0  1  0  0  0  0  0  0  0  0  0
   19.6219    5.3866    2.8021 C   0  0  0  0  0  0  0  0  0  0  0  0
   21.3262    5.3206    2.5584 C   0  0  0  0  0  0  0  0  0  0  0  0
   19.4889    5.4221    0.2593 C   0  0  0  0  0  0  0  0  0  0  0  0
   19.8347    4.3601   -0.2929 O   0  0  0  0  0  0  0  0  0  0  0  0
   20.3132    6.5289   -0.0768 N   0  0  0  0  0  0  0  0  0  0  0  0
   20.6538    7.7173    0.7174 C   0  0  0  0  0  0  0  0  0  0  0  0
   20.7301    6.6557   -1.5035 C   0  0  0  0  0  0  0  0  0  0  0  0
   21.4248    5.7419   -2.5618 C   0  0  0  0  0  0  0  0  0  0  0  0
   20.8962    5.7907   -3.6843 O   0  0  0  0  0  0  0  0  0  0  0  0
   22.5977    5.0204   -2.3604 N   0  0  0  0  0  0  0  0  0  0  0  0
   23.3037    5.0343   -1.0948 C   0  0  0  0  0  0  0  0  0  0  0  0
   23.1004    4.0732   -3.4237 C   0  0  2  0  0  0  0  0  0  0  0  0
   23.1050    2.5684   -3.0094 C   0  0  0  0  0  0  0  0  0  0  0  0
   21.7277    1.9016   -3.0332 C   0  0  0  0  0  0  0  0  0  0  0  0
   21.7488    0.4585   -2.5364 C   0  0  0  0  0  0  0  0  0  0  0  0
   20.7953    2.6306   -2.1191 C   0  0  0  0  0  0  0  0  0  0  0  0
   24.5240    4.3929   -3.9556 C   0  0  0  0  0  0  0  0  0  0  0  0
   25.5028    4.3931   -3.2029 O   0  0  0  0  0  0  0  0  0  0  0  0
   24.7720    4.6151   -5.2907 N   0  0  0  0  0  0  0  0  0  0  0  0
   23.8718    4.9892   -6.3989 C   0  0  2  0  0  0  0  0  0  0  0  0
   22.9315    6.1523   -6.0405 C   0  0  0  0  0  0  0  0  0  0  0  0
   21.9242    6.4772   -7.1319 C   0  0  0  0  0  0  0  0  0  0  0  0
   23.6589    7.3954   -5.5343 C   0  0  0  0  0  0  0  0  0  0  0  0
   23.0510    3.7622   -6.8775 C   0  0  0  0  0  0  0  0  0  0  0  0
   22.1870    3.2765   -6.1464 O   0  0  0  0  0  0  0  0  0  0  0  0
   23.3446    3.1541   -8.0898 N   0  0  0  0  0  0  0  0  0  0  0  0
   23.9787    3.8075   -9.2287 C   0  0  0  0  0  0  0  0  0  0  0  0
   22.8253    1.7775   -8.2672 C   0  0  2  0  0  0  0  0  0  0  0  0
   23.9554    0.7408   -8.3972 C   0  0  0  0  0  0  0  0  0  0  0  0
   24.8803    0.7475   -7.1515 C   0  0  0  0  0  0  0  0  0  0  0  0
   24.1690    0.4103   -5.8376 C   0  0  0  0  0  0  0  0  0  0  0  0
   26.0423   -0.2276   -7.3116 C   0  0  0  0  0  0  0  0  0  0  0  0
   21.7130    1.6564   -9.3312 C   0  0  0  0  0  0  0  0  0  0  0  0
   21.9011    1.9274  -10.5201 O   0  0  0  0  0  0  0  0  0  0  0  0
   20.4484    1.2879   -8.9461 N   0  0  0  0  0  0  0  0  0  0  0  0
   19.9389    1.0052   -7.5918 C   0  0  1  0  0  0  0  0  0  0  0  0
   18.5009    1.4485   -7.4979 C   0  0  0  0  0  0  0  0  0  0  0  0
   20.3467   -0.4308   -7.1287 C   0  0  0  0  0  0  0  0  0  0  0  0
   21.5292   -0.7922   -7.2260 O   0  0  0  0  0  0  0  0  0  0  0  0
   19.5511   -1.3704   -6.5621 N   0  0  0  0  0  0  0  0  0  0  0  0
   18.1495   -1.7112   -6.7894 C   0  0  2  0  0  0  0  0  0  0  0  0
   17.7931   -1.7234   -8.2791 C   0  0  0  0  0  0  0  0  0  0  0  0
   17.1512   -0.9427   -5.8672 C   0  0  0  0  0  0  0  0  0  0  0  0
   16.3016   -0.1680   -6.3103 O   0  0  0  0  0  0  0  0  0  0  0  0
   17.2716   -1.1864   -4.4872 N   0  0  0  0  0  0  0  0  0  0  0  0
   16.8920   -2.5218   -4.0743 C   0  0  0  0  0  0  0  0  0  0  0  0
   16.8400   -0.0940   -3.5374 C   0  0  1  0  0  0  0  0  0  0  0  0
   17.6717    1.1842   -3.5906 C   0  0  0  0  0  0  0  0  0  0  0  0
   17.2310    2.3146   -2.6357 C   0  0  0  0  0  0  0  0  0  0  0  0
   17.5321    2.0279   -1.1686 C   0  0  0  0  0  0  0  0  0  0  0  0
   17.7193    3.6707   -3.1598 C   0  0  0  0  0  0  0  0  0  0  0  0
   15.3113   -0.0304   -3.3194 C   0  0  0  0  0  0  0  0  0  0  0  0
   14.7837   -0.7055   -2.4791 O   0  0  0  0  0  0  0  0  0  0  0  0
   14.6069    0.6098   -4.3050 N   0  0  0  0  0  0  0  0  0  0  0  0
   14.9541    1.9200   -4.8667 C   0  0  0  0  0  0  0  0  0  0  0  0
   13.1052    0.3236   -4.3442 C   0  0  1  0  0  0  0  0  0  0  0  0
   12.5287   -1.0061   -4.2600 C   0  0  0  0  0  0  0  0  0  0  0  0
   10.9547   -0.8920   -4.3961 C   0  0  0  0  0  0  0  0  0  0  0  0
   10.5239   -0.3895   -5.7751 C   0  0  0  0  0  0  0  0  0  0  0  0
   10.3355   -2.2138   -4.0052 C   0  0  0  0  0  0  0  0  0  0  0  0
   12.4324    1.5056   -3.6728 C   0  0  0  0  0  0  0  0  0  0  0  0
   12.1933    2.4556   -4.4809 O   0  0  0  0  0  0  0  0  0  0  0  0
   12.2828    1.5958   -2.2982 N   0  0  0  0  0  0  0  0  0  0  0  0
   11.6665    0.5479   -1.4864 C   0  0  0  0  0  0  0  0  0  0  0  0
   12.6350    2.9040   -1.6783 C   0  0  1  0  0  0  0  0  0  0  0  0
   12.5239    4.1763   -2.5966 C   0  0  0  0  0  0  0  0  0  0  0  0
   13.7649    4.6496   -3.3296 C   0  0  0  0  0  0  0  0  0  0  0  0
   11.1107    4.3963   -3.1766 C   0  0  0  0  0  0  0  0  0  0  0  0
   11.9958    3.3915   -0.3390 C   0  0  0  0  0  0  0  0  0  0  0  0
   11.3821    2.5639    0.3951 O   0  0  0  0  0  0  0  0  0  0  0  0
   12.2669    4.7350   -0.0207 N   0  0  0  0  0  0  0  0  0  0  0  0
   11.1403    5.6785   -0.3667 C   0  0  0  0  0  0  0  0  0  0  0  0
    4.1910    8.7660    2.1317 H   0  0  0  0  0  0  0  0  0  0  0  0
    3.5603    7.1383    2.1391 H   0  0  0  0  0  0  0  0  0  0  0  0
    4.0427    7.9126    0.6152 H   0  0  0  0  0  0  0  0  0  0  0  0
    6.3392    7.9180    2.5731 H   0  0  0  0  0  0  0  0  0  0  0  0
    5.6397    5.6689    0.7047 H   0  0  0  0  0  0  0  0  0  0  0  0
    7.7375    5.2784    0.1774 H   0  0  0  0  0  0  0  0  0  0  0  0
    7.1640    4.4812    1.7068 H   0  0  0  0  0  0  0  0  0  0  0  0
    9.0329    3.9077    2.4757 H   0  0  0  0  0  0  0  0  0  0  0  0
    8.9658    3.4967   -0.6098 H   0  0  0  0  0  0  0  0  0  0  0  0
    7.7309    3.0922    0.4871 H   0  0  0  0  0  0  0  0  0  0  0  0
    9.1528    2.1965    0.6461 H   0  0  0  0  0  0  0  0  0  0  0  0
   11.1078    5.3275    2.9080 H   0  0  0  0  0  0  0  0  0  0  0  0
   11.3739    3.6170    2.5398 H   0  0  0  0  0  0  0  0  0  0  0  0
   12.9567    6.1070    1.3626 H   0  0  0  0  0  0  0  0  0  0  0  0
   16.5987    5.1433    0.4630 H   0  0  0  0  0  0  0  0  0  0  0  0
   18.3241    4.1014    1.5226 H   0  0  0  0  0  0  0  0  0  0  0  0
   19.5114    4.5374    3.4776 H   0  0  0  0  0  0  0  0  0  0  0  0
   19.4927    6.3280    3.3351 H   0  0  0  0  0  0  0  0  0  0  0  0
   21.7071    4.7139    1.7236 H   0  0  0  0  0  0  0  0  0  0  0  0
   21.8527    4.9241    3.4506 H   0  0  0  0  0  0  0  0  0  0  0  0
   21.8241    6.3028    2.4969 H   0  0  0  0  0  0  0  0  0  0  0  0
   21.6565    7.5964    1.1588 H   0  0  0  0  0  0  0  0  0  0  0  0
   19.9141    7.9252    1.4774 H   0  0  0  0  0  0  0  0  0  0  0  0
   20.7919    8.6001    0.0768 H   0  0  0  0  0  0  0  0  0  0  0  0
   21.2966    7.5945   -1.6166 H   0  0  0  0  0  0  0  0  0  0  0  0
   19.7551    6.8575   -1.9670 H   0  0  0  0  0  0  0  0  0  0  0  0
   22.5716    4.9852   -0.2958 H   0  0  0  0  0  0  0  0  0  0  0  0
   23.8823    5.9498   -1.0255 H   0  0  0  0  0  0  0  0  0  0  0  0
   23.9695    4.1807   -1.0062 H   0  0  0  0  0  0  0  0  0  0  0  0
   22.3951    4.1439   -4.2339 H   0  0  0  0  0  0  0  0  0  0  0  0
   23.7439    2.0126   -3.6993 H   0  0  0  0  0  0  0  0  0  0  0  0
   23.5639    2.4258   -2.0270 H   0  0  0  0  0  0  0  0  0  0  0  0
   21.3195    1.9205   -4.0510 H   0  0  0  0  0  0  0  0  0  0  0  0
   22.0455    0.4153   -1.4816 H   0  0  0  0  0  0  0  0  0  0  0  0
   22.4267   -0.1621   -3.1221 H   0  0  0  0  0  0  0  0  0  0  0  0
   20.7432    0.0234   -2.6007 H   0  0  0  0  0  0  0  0  0  0  0  0
   21.1619    2.6251   -1.0901 H   0  0  0  0  0  0  0  0  0  0  0  0
   19.8387    2.1507   -2.1534 H   0  0  0  0  0  0  0  0  0  0  0  0
   20.6027    3.6362   -2.4495 H   0  0  0  0  0  0  0  0  0  0  0  0
   25.7670    4.7849   -5.4480 H   0  0  0  0  0  0  0  0  0  0  0  0
   24.5539    5.3293   -7.1791 H   0  0  0  0  0  0  0  0  0  0  0  0
   22.3275    5.8247   -5.2144 H   0  0  0  0  0  0  0  0  0  0  0  0
   22.4191    6.8298   -8.0495 H   0  0  0  0  0  0  0  0  0  0  0  0
   21.2277    7.2541   -6.7895 H   0  0  0  0  0  0  0  0  0  0  0  0
   21.3107    5.6060   -7.3856 H   0  0  0  0  0  0  0  0  0  0  0  0
   24.2747    7.8465   -6.3195 H   0  0  0  0  0  0  0  0  0  0  0  0
   24.3034    7.1661   -4.6811 H   0  0  0  0  0  0  0  0  0  0  0  0
   22.9346    8.1386   -5.1892 H   0  0  0  0  0  0  0  0  0  0  0  0
   24.2845    4.8287   -9.0124 H   0  0  0  0  0  0  0  0  0  0  0  0
   23.2617    3.8742  -10.0492 H   0  0  0  0  0  0  0  0  0  0  0  0
   24.8507    3.2312   -9.5385 H   0  0  0  0  0  0  0  0  0  0  0  0
   22.3441    1.5002   -7.3424 H   0  0  0  0  0  0  0  0  0  0  0  0
   23.5309   -0.2602   -8.5400 H   0  0  0  0  0  0  0  0  0  0  0  0
   24.5433    0.9410   -9.3000 H   0  0  0  0  0  0  0  0  0  0  0  0
   25.3104    1.7518   -7.0542 H   0  0  0  0  0  0  0  0  0  0  0  0
   23.8131   -0.6228   -5.8174 H   0  0  0  0  0  0  0  0  0  0  0  0
   23.3089    1.0546   -5.6427 H   0  0  0  0  0  0  0  0  0  0  0  0
   24.8563    0.5445   -4.9962 H   0  0  0  0  0  0  0  0  0  0  0  0
   25.6918   -1.2649   -7.2953 H   0  0  0  0  0  0  0  0  0  0  0  0
   26.7487   -0.0999   -6.4829 H   0  0  0  0  0  0  0  0  0  0  0  0
   26.5816   -0.0532   -8.2449 H   0  0  0  0  0  0  0  0  0  0  0  0
   19.7877    1.2778   -9.7129 H   0  0  0  0  0  0  0  0  0  0  0  0
   20.4568    1.6653   -6.8914 H   0  0  0  0  0  0  0  0  0  0  0  0
   17.8532    0.9838   -8.2425 H   0  0  0  0  0  0  0  0  0  0  0  0
   18.4112    2.5313   -7.6343 H   0  0  0  0  0  0  0  0  0  0  0  0
   18.1348    1.2382   -6.5048 H   0  0  0  0  0  0  0  0  0  0  0  0
   20.1310   -2.1701   -6.3307 H   0  0  0  0  0  0  0  0  0  0  0  0
   18.0787   -2.7635   -6.4921 H   0  0  0  0  0  0  0  0  0  0  0  0
   18.3484   -0.9840   -8.8592 H   0  0  0  0  0  0  0  0  0  0  0  0
   16.7243   -1.5641   -8.4525 H   0  0  0  0  0  0  0  0  0  0  0  0
   18.0599   -2.6926   -8.7170 H   0  0  0  0  0  0  0  0  0  0  0  0
   17.3157   -3.2919   -4.7301 H   0  0  0  0  0  0  0  0  0  0  0  0
   15.8006   -2.6240   -4.1343 H   0  0  0  0  0  0  0  0  0  0  0  0
   17.2319   -2.7201   -3.0520 H   0  0  0  0  0  0  0  0  0  0  0  0
   17.1838   -0.5290   -2.4946 H   0  0  0  0  0  0  0  0  0  0  0  0
   17.6783    1.5639   -4.6162 H   0  0  0  0  0  0  0  0  0  0  0  0
   18.7120    0.9441   -3.4282 H   0  0  0  0  0  0  0  0  0  0  0  0
   16.1466    2.3968   -2.6382 H   0  0  0  0  0  0  0  0  0  0  0  0
   18.5227    1.6341   -0.9646 H   0  0  0  0  0  0  0  0  0  0  0  0
   16.8367    1.2698   -0.7872 H   0  0  0  0  0  0  0  0  0  0  0  0
   17.3987    2.9289   -0.5611 H   0  0  0  0  0  0  0  0  0  0  0  0
   18.7785    3.6700   -3.4194 H   0  0  0  0  0  0  0  0  0  0  0  0
   17.5290    4.4824   -2.4539 H   0  0  0  0  0  0  0  0  0  0  0  0
   17.1992    3.9260   -4.0939 H   0  0  0  0  0  0  0  0  0  0  0  0
   15.9736    1.9913   -5.2121 H   0  0  0  0  0  0  0  0  0  0  0  0
   14.8294    2.6227   -4.0454 H   0  0  0  0  0  0  0  0  0  0  0  0
   14.3166    2.2277   -5.6877 H   0  0  0  0  0  0  0  0  0  0  0  0
   12.9085    0.5691   -5.4471 H   0  0  0  0  0  0  0  0  0  0  0  0
   12.7548   -1.4606   -3.2745 H   0  0  0  0  0  0  0  0  0  0  0  0
   12.9094   -1.6627   -4.9806 H   0  0  0  0  0  0  0  0  0  0  0  0
   10.5455   -0.1633   -3.6908 H   0  0  0  0  0  0  0  0  0  0  0  0
   10.9437   -1.0108   -6.5743 H   0  0  0  0  0  0  0  0  0  0  0  0
   10.8321    0.6344   -5.9456 H   0  0  0  0  0  0  0  0  0  0  0  0
    9.4309   -0.3969   -5.8613 H   0  0  0  0  0  0  0  0  0  0  0  0
   10.7629   -3.0432   -4.5849 H   0  0  0  0  0  0  0  0  0  0  0  0
    9.2475   -2.2040   -4.1559 H   0  0  0  0  0  0  0  0  0  0  0  0
   10.5179   -2.4140   -2.9434 H   0  0  0  0  0  0  0  0  0  0  0  0
   11.8642   -0.4599   -1.8459 H   0  0  0  0  0  0  0  0  0  0  0  0
   10.5745    0.6813   -1.5266 H   0  0  0  0  0  0  0  0  0  0  0  0
   11.9953    0.5496   -0.4439 H   0  0  0  0  0  0  0  0  0  0  0  0
   13.6736    2.7355   -1.3637 H   0  0  0  0  0  0  0  0  0  0  0  0
   12.5925    5.0236   -1.9438 H   0  0  0  0  0  0  0  0  0  0  0  0
   13.7850    4.3785   -4.3794 H   0  0  0  0  0  0  0  0  0  0  0  0
   14.6682    4.3230   -2.7994 H   0  0  0  0  0  0  0  0  0  0  0  0
   13.8073    5.7483   -3.2909 H   0  0  0  0  0  0  0  0  0  0  0  0
   10.8086    3.8171   -4.0426 H   0  0  0  0  0  0  0  0  0  0  0  0
   10.9824    5.4422   -3.4506 H   0  0  0  0  0  0  0  0  0  0  0  0
   10.3517    4.1238   -2.4373 H   0  0  0  0  0  0  0  0  0  0  0  0
   11.4798    6.4113   -1.0992 H   0  0  0  0  0  0  0  0  0  0  0  0
   10.7756    6.2556    0.4869 H   0  0  0  0  0  0  0  0  0  0  0  0
   10.2743    5.1590   -0.7810 H   0  0  0  0  0  0  0  0  0  0  0  0
  1  2  1  0  0  0  0
  1 85  1  0  0  0  0
  1 86  1  0  0  0  0
  1 87  1  0  0  0  0
  2  3  2  0  0  0  0
  2 88  1  0  0  0  0
  3  4  1  0  0  0  0
  3 89  1  0  0  0  0
  4  5  1  0  0  0  0
  4 90  1  0  0  0  0
  4 91  1  0  0  0  0
  5  6  1  0  0  0  0
  5  7  1  0  0  0  0
  5 92  1  1  0  0  0
  6 93  1  0  0  0  0
  6 94  1  0  0  0  0
  6 95  1  0  0  0  0
  7  8  1  0  0  0  0
  7 96  1  0  0  0  0
  7 97  1  0  0  0  0
  8  9  1  0  0  0  0
  8 83  1  0  0  0  0
  8 98  1  1  0  0  0
  9 10  2  0  0  0  0
  9 11  1  0  0  0  0
 11 12  1  0  0  0  0
 11 99  1  0  0  0  0
 12 13  1  0  0  0  0
 12 15  1  0  0  0  0
 12100  1  1  0  0  0
 13 14  1  0  0  0  0
 13101  1  0  0  0  0
 13102  1  0  0  0  0
 14103  1  0  0  0  0
 14104  1  0  0  0  0
 14105  1  0  0  0  0
 15 16  2  0  0  0  0
 15 17  1  0  0  0  0
 17 18  1  0  0  0  0
 17 19  1  0  0  0  0
 18106  1  0  0  0  0
 18107  1  0  0  0  0
 18108  1  0  0  0  0
 19 20  1  0  0  0  0
 19109  1  0  0  0  0
 19110  1  0  0  0  0
 20 21  2  0  0  0  0
 20 22  1  0  0  0  0
 22 23  1  0  0  0  0
 22 24  1  0  0  0  0
 23111  1  0  0  0  0
 23112  1  0  0  0  0
 23113  1  0  0  0  0
 24 29  1  0  0  0  0
 24 25  1  0  0  0  0
 24114  1  6  0  0  0
 25 26  1  0  0  0  0
 25115  1  0  0  0  0
 25116  1  0  0  0  0
 26 27  1  0  0  0  0
 26 28  1  0  0  0  0
 26117  1  0  0  0  0
 27118  1  0  0  0  0
 27119  1  0  0  0  0
 27120  1  0  0  0  0
 28121  1  0  0  0  0
 28122  1  0  0  0  0
 28123  1  0  0  0  0
 29 30  2  0  0  0  0
 29 31  1  0  0  0  0
 31 32  1  0  0  0  0
 31124  1  0  0  0  0
 32 36  1  0  0  0  0
 32 33  1  0  0  0  0
 32125  1  6  0  0  0
 33 34  1  0  0  0  0
 33 35  1  0  0  0  0
 33126  1  0  0  0  0
 34127  1  0  0  0  0
 34128  1  0  0  0  0
 34129  1  0  0  0  0
 35130  1  0  0  0  0
 35131  1  0  0  0  0
 35132  1  0  0  0  0
 36 37  2  0  0  0  0
 36 38  1  0  0  0  0
 38 39  1  0  0  0  0
 38 40  1  0  0  0  0
 39133  1  0  0  0  0
 39134  1  0  0  0  0
 39135  1  0  0  0  0
 40 45  1  0  0  0  0
 40 41  1  0  0  0  0
 40136  1  1  0  0  0
 41 42  1  0  0  0  0
 41137  1  0  0  0  0
 41138  1  0  0  0  0
 42 43  1  0  0  0  0
 42 44  1  0  0  0  0
 42139  1  0  0  0  0
 43140  1  0  0  0  0
 43141  1  0  0  0  0
 43142  1  0  0  0  0
 44143  1  0  0  0  0
 44144  1  0  0  0  0
 44145  1  0  0  0  0
 45 46  2  0  0  0  0
 45 47  1  0  0  0  0
 47 48  1  0  0  0  0
 47146  1  0  0  0  0
 48 49  1  0  0  0  0
 48 50  1  0  0  0  0
 48147  1  1  0  0  0
 49148  1  0  0  0  0
 49149  1  0  0  0  0
 49150  1  0  0  0  0
 50 51  2  0  0  0  0
 50 52  1  0  0  0  0
 52 53  1  0  0  0  0
 52151  1  0  0  0  0
 53 55  1  0  0  0  0
 53 54  1  0  0  0  0
 53152  1  1  0  0  0
 54153  1  0  0  0  0
 54154  1  0  0  0  0
 54155  1  0  0  0  0
 55 56  2  0  0  0  0
 55 57  1  0  0  0  0
 57 58  1  0  0  0  0
 57 59  1  0  0  0  0
 58156  1  0  0  0  0
 58157  1  0  0  0  0
 58158  1  0  0  0  0
 59 60  1  0  0  0  0
 59 64  1  0  0  0  0
 59159  1  1  0  0  0
 60 61  1  0  0  0  0
 60160  1  0  0  0  0
 60161  1  0  0  0  0
 61 62  1  0  0  0  0
 61 63  1  0  0  0  0
 61162  1  0  0  0  0
 62163  1  0  0  0  0
 62164  1  0  0  0  0
 62165  1  0  0  0  0
 63166  1  0  0  0  0
 63167  1  0  0  0  0
 63168  1  0  0  0  0
 64 65  2  0  0  0  0
 64 66  1  0  0  0  0
 66 67  1  0  0  0  0
 66 68  1  0  0  0  0
 67169  1  0  0  0  0
 67170  1  0  0  0  0
 67171  1  0  0  0  0
 68 69  1  0  0  0  0
 68 73  1  0  0  0  0
 68172  1  6  0  0  0
 69 70  1  0  0  0  0
 69173  1  0  0  0  0
 69174  1  0  0  0  0
 70 71  1  0  0  0  0
 70 72  1  0  0  0  0
 70175  1  0  0  0  0
 71176  1  0  0  0  0
 71177  1  0  0  0  0
 71178  1  0  0  0  0
 72179  1  0  0  0  0
 72180  1  0  0  0  0
 72181  1  0  0  0  0
 73 74  2  0  0  0  0
 73 75  1  0  0  0  0
 75 76  1  0  0  0  0
 75 77  1  0  0  0  0
 76182  1  0  0  0  0
 76183  1  0  0  0  0
 76184  1  0  0  0  0
 77 78  1  0  0  0  0
 77 81  1  0  0  0  0
 77185  1  1  0  0  0
 78 79  1  0  0  0  0
 78 80  1  0  0  0  0
 78186  1  0  0  0  0
 79187  1  0  0  0  0
 79188  1  0  0  0  0
 79189  1  0  0  0  0
 80190  1  0  0  0  0
 80191  1  0  0  0  0
 80192  1  0  0  0  0
 81 82  2  0  0  0  0
 81 83  1  0  0  0  0
 83 84  1  0  0  0  0
 84193  1  0  0  0  0
 84194  1  0  0  0  0
 84195  1  0  0  0  0
M  END
>  <Energy>
1107.44

$$$$