97860
  -OEChem-03242010103D

 33 35  0     1  0  0  0  0  0999 V2000
   -0.4069   -0.8045   -0.1126 O   0  0  0  0  0  0  0  0  0  0  0  0
    1.0405    3.0283   -0.3255 O   0  0  0  0  0  0  0  0  0  0  0  0
    5.0592   -0.0579    0.1450 O   0  0  0  0  0  0  0  0  0  0  0  0
   -1.1970    0.3047    0.3434 C   0  0  1  0  0  0  0  0  0  0  0  0
   -0.8637    1.5733   -0.4392 C   0  0  0  0  0  0  0  0  0  0  0  0
   -2.6599   -0.0578    0.1982 C   0  0  0  0  0  0  0  0  0  0  0  0
    1.4945    0.7225   -0.0981 C   0  0  0  0  0  0  0  0  0  0  0  0
    0.6002    1.8862   -0.2684 C   0  0  0  0  0  0  0  0  0  0  0  0
    0.9408   -0.5604   -0.0522 C   0  0  0  0  0  0  0  0  0  0  0  0
    2.8788    0.8967   -0.0272 C   0  0  0  0  0  0  0  0  0  0  0  0
    1.7774   -1.6743    0.0308 C   0  0  0  0  0  0  0  0  0  0  0  0
   -3.5954    0.4433    1.1032 C   0  0  0  0  0  0  0  0  0  0  0  0
   -3.0715   -0.8930   -0.8402 C   0  0  0  0  0  0  0  0  0  0  0  0
    3.7091   -0.2200    0.0763 C   0  0  0  0  0  0  0  0  0  0  0  0
    3.1602   -1.5026    0.1003 C   0  0  0  0  0  0  0  0  0  0  0  0
   -4.9430    0.1091    0.9696 C   0  0  0  0  0  0  0  0  0  0  0  0
   -4.4192   -1.2269   -0.9740 C   0  0  0  0  0  0  0  0  0  0  0  0
   -5.3549   -0.7259   -0.0692 C   0  0  0  0  0  0  0  0  0  0  0  0
    5.8507   -1.2408    0.2398 C   0  0  0  0  0  0  0  0  0  0  0  0
   -0.9809    0.4416    1.4135 H   0  0  0  0  0  0  0  0  0  0  0  0
   -1.4518    2.4198   -0.0676 H   0  0  0  0  0  0  0  0  0  0  0  0
   -1.0549    1.4524   -1.5119 H   0  0  0  0  0  0  0  0  0  0  0  0
    3.3212    1.8888   -0.0614 H   0  0  0  0  0  0  0  0  0  0  0  0
    1.3586   -2.6770    0.0524 H   0  0  0  0  0  0  0  0  0  0  0  0
   -3.2870    1.0963    1.9153 H   0  0  0  0  0  0  0  0  0  0  0  0
   -2.3651   -1.2860   -1.5662 H   0  0  0  0  0  0  0  0  0  0  0  0
    3.7498   -2.4103    0.1723 H   0  0  0  0  0  0  0  0  0  0  0  0
   -5.6718    0.4997    1.6737 H   0  0  0  0  0  0  0  0  0  0  0  0
   -4.7406   -1.8746   -1.7845 H   0  0  0  0  0  0  0  0  0  0  0  0
   -6.4044   -0.9850   -0.1738 H   0  0  0  0  0  0  0  0  0  0  0  0
    6.8984   -0.9258    0.2849 H   0  0  0  0  0  0  0  0  0  0  0  0
    5.7444   -1.8690   -0.6513 H   0  0  0  0  0  0  0  0  0  0  0  0
    5.6429   -1.7915    1.1635 H   0  0  0  0  0  0  0  0  0  0  0  0
  1  4  1  0  0  0  0
  1  9  1  0  0  0  0
  2  8  2  0  0  0  0
  3 14  1  0  0  0  0
  3 19  1  0  0  0  0
  4  5  1  0  0  0  0
  4  6  1  0  0  0  0
  4 20  1  0  0  0  0
  5  8  1  0  0  0  0
  5 21  1  0  0  0  0
  5 22  1  0  0  0  0
  6 12  2  0  0  0  0
  6 13  1  0  0  0  0
  7  8  1  0  0  0  0
  7  9  2  0  0  0  0
  7 10  1  0  0  0  0
  9 11  1  0  0  0  0
 10 14  2  0  0  0  0
 10 23  1  0  0  0  0
 11 15  2  0  0  0  0
 11 24  1  0  0  0  0
 12 16  1  0  0  0  0
 12 25  1  0  0  0  0
 13 17  2  0  0  0  0
 13 26  1  0  0  0  0
 14 15  1  0  0  0  0
 15 27  1  0  0  0  0
 16 18  2  0  0  0  0
 16 28  1  0  0  0  0
 17 18  1  0  0  0  0
 17 29  1  0  0  0  0
 18 30  1  0  0  0  0
 19 31  1  0  0  0  0
 19 32  1  0  0  0  0
 19 33  1  0  0  0  0
M  END
> <PUBCHEM_COMPOUND_CID>
97860

> <PUBCHEM_CONFORMER_RMSD>
0.6

> <PUBCHEM_CONFORMER_DIVERSEORDER>
4
6
2
1
8
3
5
7

> <PUBCHEM_MMFF94_PARTIAL_CHARGES>
27
1 -0.36
10 -0.15
11 -0.15
12 -0.15
13 -0.15
14 0.08
15 -0.15
16 -0.15
17 -0.15
18 -0.15
19 0.28
2 -0.57
23 0.15
24 0.15
25 0.15
26 0.15
27 0.15
28 0.15
29 0.15
3 -0.36
30 0.15
4 0.42
5 0.06
6 -0.14
7 0.09
8 0.42
9 0.08

> <PUBCHEM_EFFECTIVE_ROTOR_COUNT>
2.6

> <PUBCHEM_PHARMACOPHORE_FEATURES>
6
1 1 acceptor
1 2 acceptor
1 3 acceptor
6 1 4 5 7 8 9 rings
6 6 12 13 16 17 18 rings
6 7 9 10 11 14 15 rings

> <PUBCHEM_HEAVY_ATOM_COUNT>
19

> <PUBCHEM_ATOM_DEF_STEREO_COUNT>
0

> <PUBCHEM_ATOM_UDEF_STEREO_COUNT>
1

> <PUBCHEM_BOND_DEF_STEREO_COUNT>
0

> <PUBCHEM_BOND_UDEF_STEREO_COUNT>
0

> <PUBCHEM_ISOTOPIC_ATOM_COUNT>
0

> <PUBCHEM_COMPONENT_COUNT>
1

> <PUBCHEM_CACTVS_TAUTO_COUNT>
2

> <PUBCHEM_CONFORMER_ID>
00017E4400000004

> <PUBCHEM_MMFF94_ENERGY>
63.6143

> <PUBCHEM_FEATURE_SELFOVERLAP>
30.478

> <PUBCHEM_SHAPE_FINGERPRINT>
10906281 52 18264509371992666134
11471102 20 18335138738695865845
11578080 2 17844500328514414041
11806522 49 18410854373501435918
12107183 9 17410790059422928299
12236239 1 18131633400228766579
12251169 10 18272092699399653727
12553582 1 18335973207849698634
12596602 18 17418372510540451898
13140716 1 18192997234189826098
13288520 33 18412544297340991759
13544653 18 18260270711295917134
13583140 156 14764338328106555543
13760787 5 18259990400281802084
13862211 1 18408318874477552738
14252887 29 18272660008676601110
14347332 77 18121501255146606438
14386348 63 17603309258473334123
14739800 52 16987148547132057152
14787075 74 18333453149243079360
15196674 1 18409729543374071236
15527383 91 18342458136094122169
15788980 27 18259702294160331879
15848700 24 18408318891440884212
17357779 13 17968082132424429181
17492 89 18049723215881664235
17862501 102 18202565098649499065
1813 80 18337123284195879876
18186145 218 17458620160061901273
18222031 100 18410283722967058626
19141452 34 18202563981826445311
200 152 18413385436684400235
20028762 73 18130782399477722318
20612939 158 18262237832409328405
20645477 70 18115583884959347661
21267235 1 18411144627497125966
21641784 216 17750532714597973652
221490 88 18118407482259149659
2255824 54 18338803445379722405
23175994 123 17603590733539773965
23402539 116 18411696560795921654
23522609 53 18124065410725597120
23557571 272 18270967830358847908
23559900 14 18338509871838718225
26918003 58 18040439888662274795
2871803 45 18186799150000660610
293599 30 9943801201596753130
34797466 226 16199878383358889176
34934 24 18191584147348097521
351380 3 18410009931502600874
4463277 17 18410013230327459132
465052 167 18336553792928391630
474 4 18121779688669163009
5104073 3 18130232682956005555
602551 16 15554159397795127423
67856867 119 18058164102138857585
7495541 125 16951141675735703329
83771 10 18410572872781529108
8863177 126 17678755633516855291
9971528 1 18411132580240604216
9981440 41 17188679283059001273

> <PUBCHEM_SHAPE_MULTIPOLES>
373.4
11.42
1.95
0.85
0.3
1.11
0.04
-5.1
1.28
1.03
-0.33
-0.82
-0.03
-0.75

> <PUBCHEM_SHAPE_SELFOVERLAP>
819.22

> <PUBCHEM_SHAPE_VOLUME>
201.4

> <PUBCHEM_COORDINATE_TYPE>
2
5
10

$$$$