15511439
  -OEChem-03242010103D

 73 77  0     1  0  0  0  0  0999 V2000
    9.1379   -1.2849   -1.7809 O   0  0  0  0  0  0  0  0  0  0  0  0
   10.2695    0.8349   -0.3881 O   0  0  0  0  0  0  0  0  0  0  0  0
   -3.7942   -1.9201   -1.6721 O   0  0  0  0  0  0  0  0  0  0  0  0
   -7.8713    1.6022    0.0047 O   0  0  0  0  0  0  0  0  0  0  0  0
    4.0485    0.4630    1.1331 N   0  0  2  0  0  0  0  0  0  0  0  0
   -3.3983   -1.9000    0.6454 N   0  0  0  0  0  0  0  0  0  0  0  0
   -5.9581    0.2647   -0.2711 N   0  0  0  0  0  0  0  0  0  0  0  0
    4.4037    1.8860    1.1954 C   0  0  0  0  0  0  0  0  0  0  0  0
    4.6971   -0.1733   -0.0272 C   0  0  0  0  0  0  0  0  0  0  0  0
    5.9019    2.0369    1.4781 C   0  0  0  0  0  0  0  0  0  0  0  0
    6.1853    0.0819   -0.0951 C   0  0  0  0  0  0  0  0  0  0  0  0
    6.7551    1.1684    0.5907 C   0  0  0  0  0  0  0  0  0  0  0  0
    2.5977    0.2928    1.0620 C   0  0  0  0  0  0  0  0  0  0  0  0
    2.2219   -1.1884    1.0078 C   0  0  0  0  0  0  0  0  0  0  0  0
    6.9973   -0.7295   -0.8990 C   0  0  0  0  0  0  0  0  0  0  0  0
    8.1324    1.4050    0.4924 C   0  0  0  0  0  0  0  0  0  0  0  0
    8.3659   -0.4800   -0.9984 C   0  0  0  0  0  0  0  0  0  0  0  0
    8.9332    0.5847   -0.3017 C   0  0  0  0  0  0  0  0  0  0  0  0
    0.7289   -1.3775    0.9117 C   0  0  0  0  0  0  0  0  0  0  0  0
    0.1293   -1.4376   -0.3373 C   0  0  0  0  0  0  0  0  0  0  0  0
   -0.0199   -1.4881    2.0735 C   0  0  0  0  0  0  0  0  0  0  0  0
   -1.2518   -1.6124   -0.4264 C   0  0  0  0  0  0  0  0  0  0  0  0
   -1.4009   -1.6630    1.9843 C   0  0  0  0  0  0  0  0  0  0  0  0
   -2.0168   -1.7252    0.7343 C   0  0  0  0  0  0  0  0  0  0  0  0
    8.4798   -2.3523   -2.4604 C   0  0  0  0  0  0  0  0  0  0  0  0
   11.1122    0.1923    0.5664 C   0  0  0  0  0  0  0  0  0  0  0  0
   -4.1843   -1.9850   -0.5112 C   0  0  0  0  0  0  0  0  0  0  0  0
   -5.6439   -2.1448   -0.2794 C   0  0  0  0  0  0  0  0  0  0  0  0
   -6.4589   -1.0364   -0.1711 C   0  0  0  0  0  0  0  0  0  0  0  0
   -6.1379   -3.4310   -0.1808 C   0  0  0  0  0  0  0  0  0  0  0  0
   -7.8246   -1.2205    0.0449 C   0  0  0  0  0  0  0  0  0  0  0  0
   -7.5036   -3.6149    0.0353 C   0  0  0  0  0  0  0  0  0  0  0  0
   -8.3471   -2.5097    0.1482 C   0  0  0  0  0  0  0  0  0  0  0  0
   -6.6665    1.4683   -0.1809 C   0  0  0  0  0  0  0  0  0  0  0  0
   -5.8524    2.6994   -0.3579 C   0  0  0  0  0  0  0  0  0  0  0  0
   -6.2748    3.8681    0.2399 C   0  0  0  0  0  0  0  0  0  0  0  0
   -4.7015    2.6324   -1.1144 C   0  0  0  0  0  0  0  0  0  0  0  0
   -5.5110    5.0233    0.0734 C   0  0  0  0  0  0  0  0  0  0  0  0
   -3.9375    3.7875   -1.2808 C   0  0  0  0  0  0  0  0  0  0  0  0
   -4.3423    4.9830   -0.6870 C   0  0  0  0  0  0  0  0  0  0  0  0
    4.1415    2.3952    0.2580 H   0  0  0  0  0  0  0  0  0  0  0  0
    3.8537    2.3873    2.0014 H   0  0  0  0  0  0  0  0  0  0  0  0
    4.2475    0.1641   -0.9705 H   0  0  0  0  0  0  0  0  0  0  0  0
    4.5978   -1.2608    0.0456 H   0  0  0  0  0  0  0  0  0  0  0  0
    6.1065    1.7626    2.5209 H   0  0  0  0  0  0  0  0  0  0  0  0
    6.1813    3.0892    1.3480 H   0  0  0  0  0  0  0  0  0  0  0  0
    2.1847    0.8185    0.1901 H   0  0  0  0  0  0  0  0  0  0  0  0
    2.1350    0.7429    1.9501 H   0  0  0  0  0  0  0  0  0  0  0  0
    2.6503   -1.7031    0.1413 H   0  0  0  0  0  0  0  0  0  0  0  0
    2.6051   -1.7139    1.8926 H   0  0  0  0  0  0  0  0  0  0  0  0
    6.4996   -1.5385   -1.4237 H   0  0  0  0  0  0  0  0  0  0  0  0
    8.5808    2.2329    1.0370 H   0  0  0  0  0  0  0  0  0  0  0  0
    0.7167   -1.3478   -1.2468 H   0  0  0  0  0  0  0  0  0  0  0  0
    0.4505   -1.4391    3.0515 H   0  0  0  0  0  0  0  0  0  0  0  0
   -1.6538   -1.6491   -1.4290 H   0  0  0  0  0  0  0  0  0  0  0  0
   -1.9849   -1.7488    2.8972 H   0  0  0  0  0  0  0  0  0  0  0  0
    7.7461   -1.9796   -3.1833 H   0  0  0  0  0  0  0  0  0  0  0  0
    8.0462   -3.0723   -1.7578 H   0  0  0  0  0  0  0  0  0  0  0  0
    9.2439   -2.8889   -3.0325 H   0  0  0  0  0  0  0  0  0  0  0  0
   10.8528    0.5092    1.5815 H   0  0  0  0  0  0  0  0  0  0  0  0
   11.0324   -0.8960    0.4804 H   0  0  0  0  0  0  0  0  0  0  0  0
   12.1460    0.4843    0.3622 H   0  0  0  0  0  0  0  0  0  0  0  0
   -3.8874   -1.9693    1.5356 H   0  0  0  0  0  0  0  0  0  0  0  0
   -5.4873   -4.2963   -0.2681 H   0  0  0  0  0  0  0  0  0  0  0  0
   -8.5477   -0.4245    0.1442 H   0  0  0  0  0  0  0  0  0  0  0  0
   -4.9502    0.3160   -0.3788 H   0  0  0  0  0  0  0  0  0  0  0  0
   -7.9104   -4.6188    0.1156 H   0  0  0  0  0  0  0  0  0  0  0  0
   -9.4104   -2.6548    0.3164 H   0  0  0  0  0  0  0  0  0  0  0  0
   -7.1787    3.9154    0.8398 H   0  0  0  0  0  0  0  0  0  0  0  0
   -4.3706    1.7362   -1.6287 H   0  0  0  0  0  0  0  0  0  0  0  0
   -5.8255    5.9540    0.5366 H   0  0  0  0  0  0  0  0  0  0  0  0
   -3.0323    3.7590   -1.8806 H   0  0  0  0  0  0  0  0  0  0  0  0
   -3.7485    5.8829   -0.8181 H   0  0  0  0  0  0  0  0  0  0  0  0
  1 17  1  0  0  0  0
  1 25  1  0  0  0  0
  2 18  1  0  0  0  0
  2 26  1  0  0  0  0
  3 27  2  0  0  0  0
  4 34  2  0  0  0  0
  5  8  1  0  0  0  0
  5  9  1  0  0  0  0
  5 13  1  0  0  0  0
  6 24  1  0  0  0  0
  6 27  1  0  0  0  0
  6 63  1  0  0  0  0
  7 29  1  0  0  0  0
  7 34  1  0  0  0  0
  7 66  1  0  0  0  0
  8 10  1  0  0  0  0
  8 41  1  0  0  0  0
  8 42  1  0  0  0  0
  9 11  1  0  0  0  0
  9 43  1  0  0  0  0
  9 44  1  0  0  0  0
 10 12  1  0  0  0  0
 10 45  1  0  0  0  0
 10 46  1  0  0  0  0
 11 12  1  0  0  0  0
 11 15  2  0  0  0  0
 12 16  2  0  0  0  0
 13 14  1  0  0  0  0
 13 47  1  0  0  0  0
 13 48  1  0  0  0  0
 14 19  1  0  0  0  0
 14 49  1  0  0  0  0
 14 50  1  0  0  0  0
 15 17  1  0  0  0  0
 15 51  1  0  0  0  0
 16 18  1  0  0  0  0
 16 52  1  0  0  0  0
 17 18  2  0  0  0  0
 19 20  2  0  0  0  0
 19 21  1  0  0  0  0
 20 22  1  0  0  0  0
 20 53  1  0  0  0  0
 21 23  2  0  0  0  0
 21 54  1  0  0  0  0
 22 24  2  0  0  0  0
 22 55  1  0  0  0  0
 23 24  1  0  0  0  0
 23 56  1  0  0  0  0
 25 57  1  0  0  0  0
 25 58  1  0  0  0  0
 25 59  1  0  0  0  0
 26 60  1  0  0  0  0
 26 61  1  0  0  0  0
 26 62  1  0  0  0  0
 27 28  1  0  0  0  0
 28 29  1  0  0  0  0
 28 30  2  0  0  0  0
 29 31  2  0  0  0  0
 30 32  1  0  0  0  0
 30 64  1  0  0  0  0
 31 33  1  0  0  0  0
 31 65  1  0  0  0  0
 32 33  2  0  0  0  0
 32 67  1  0  0  0  0
 33 68  1  0  0  0  0
 34 35  1  0  0  0  0
 35 36  2  0  0  0  0
 35 37  1  0  0  0  0
 36 38  1  0  0  0  0
 36 69  1  0  0  0  0
 37 39  2  0  0  0  0
 37 70  1  0  0  0  0
 38 40  2  0  0  0  0
 38 71  1  0  0  0  0
 39 40  1  0  0  0  0
 39 72  1  0  0  0  0
 40 73  1  0  0  0  0
M  END
> <PUBCHEM_COMPOUND_CID>
15511439

> <PUBCHEM_CONFORMER_RMSD>
1.2

> <PUBCHEM_CONFORMER_DIVERSEORDER>
3
83
93
25
74
20
87
68
108
114
100
48
92
57
116
73
90
125
47
51
63
113
88
54
126
28
107
59
56
109
27
29
38
45
106
40
102
75
105
71
37
118
115
89
12
91
84
70
46
98
61
39
19
97
35
86
55
117
26
85
5
10
111
67
95
43
124
17
65
78
58
81
49
99
2
94
8
11
72
18
34
82
110
120
42
44
64
112
30
104
101
103
50
53
76
36
69
1
77
33
31
122
16
119
80
4
96
60
21
14
52
62
24
15
22
121
13
66
23
79
41
6
32
7
123
9

> <PUBCHEM_MMFF94_PARTIAL_CHARGES>
57
1 -0.36
10 0.14
11 -0.14
12 -0.14
13 0.27
14 0.14
15 -0.15
16 -0.15
17 0.08
18 0.08
19 -0.14
2 -0.36
20 -0.15
21 -0.15
22 -0.15
23 -0.15
24 0.12
25 0.28
26 0.28
27 0.54
28 0.09
29 0.12
3 -0.57
30 -0.15
31 -0.15
32 -0.15
33 -0.15
34 0.54
35 0.09
36 -0.15
37 -0.15
38 -0.15
39 -0.15
4 -0.57
40 -0.15
5 -0.81
51 0.15
52 0.15
53 0.15
54 0.15
55 0.15
56 0.15
6 -0.55
63 0.37
64 0.15
65 0.15
66 0.37
67 0.15
68 0.15
69 0.15
7 -0.55
70 0.15
71 0.15
72 0.15
73 0.15
8 0.27
9 0.41

> <PUBCHEM_EFFECTIVE_ROTOR_COUNT>
11.8

> <PUBCHEM_PHARMACOPHORE_FEATURES>
12
1 1 acceptor
1 2 acceptor
1 3 acceptor
1 4 acceptor
1 5 cation
1 6 donor
1 7 donor
6 11 12 15 16 17 18 rings
6 19 20 21 22 23 24 rings
6 28 29 30 31 32 33 rings
6 35 36 37 38 39 40 rings
6 5 8 9 10 11 12 rings

> <PUBCHEM_HEAVY_ATOM_COUNT>
40

> <PUBCHEM_ATOM_DEF_STEREO_COUNT>
0

> <PUBCHEM_ATOM_UDEF_STEREO_COUNT>
0

> <PUBCHEM_BOND_DEF_STEREO_COUNT>
0

> <PUBCHEM_BOND_UDEF_STEREO_COUNT>
0

> <PUBCHEM_ISOTOPIC_ATOM_COUNT>
0

> <PUBCHEM_COMPONENT_COUNT>
1

> <PUBCHEM_CACTVS_TAUTO_COUNT>
7

> <PUBCHEM_CONFORMER_ID>
00ECAF8F00000003

> <PUBCHEM_MMFF94_ENERGY>
150.2514

> <PUBCHEM_FEATURE_SELFOVERLAP>
60.924

> <PUBCHEM_SHAPE_FINGERPRINT>
10 15 13840254914308594259
10050765 1 18265328422188117475
10454371 7 18410855447597272609
10669705 176 18343586222170720098
10842051 180 15574431012035449524
10951579 204 18335712598457427156
11181472 205 18040436578249921712
11410812 94 18408604756438758536
12082328 90 18411416219849359263
12144600 37 18341051822363026814
12355185 293 18343589559408113308
13383665 225 18041012722000037422
13726171 33 18196092141381640441
13974486 27 18267865180419179617
14118638 360 18113890563732667715
14150022 121 18335134302717355357
14294032 229 17822849776073872268
14400156 413 17560513028349213984
14512766 119 18261951830916922189
14856354 85 18263923401648502431
15289351 153 18335971013759564930
15328684 2 17750213868614993760
15604295 49 18341324613433329888
16728433 281 18341336574094335912
18603816 31 11815896773821360203
21133410 127 17900254213991152773
21792961 116 17632581573941653475
22164985 6 16630525180683447634
24204213 200 15864616320029952178
3711267 37 16588026827429598174
3986486 107 18261682502587681222
44802255 64 18202560679783039935
6201320 215 18340482283776857441
6673363 416 18335422421728813297
6691757 9 16515408495020001707
9962374 69 12751232619826106738

> <PUBCHEM_SHAPE_MULTIPOLES>
784.76
37.28
5.34
1.5
68.5
6.53
-0.1
0.76
-9.19
-17.65
-0.98
2.51
-0.54
3.68

> <PUBCHEM_SHAPE_SELFOVERLAP>
1709.008

> <PUBCHEM_SHAPE_VOLUME>
426.1

> <PUBCHEM_COORDINATE_TYPE>
2
5
10

$$$$