44
 OpenBabel03292021463D

196196  0  0  1  0  0  0  0  0999 V2000
   13.0700   -0.8938   -7.0870 C   0  0  0  0  0  0  0  0  0  0  0  0
   14.5257   -0.6999   -7.4603 C   0  0  0  0  0  0  0  0  0  0  0  0
   14.9887   -0.7343   -8.7311 C   0  0  0  0  0  0  0  0  0  0  0  0
   16.4212   -0.4781   -9.2731 C   0  0  0  0  0  0  0  0  0  0  0  0
   16.6020    0.8921  -10.0564 C   0  0  1  0  0  0  0  0  0  0  0  0
   15.3444    1.1312  -10.8976 C   0  0  0  0  0  0  0  0  0  0  0  0
   17.9302    1.3079  -10.9240 C   0  0  1  0  0  0  0  0  0  0  0  0
   19.0003    0.4829  -10.4349 O   0  0  0  0  0  0  0  0  0  0  0  0
   18.4907    2.9501  -10.9206 C   0  0  3  0  0  0  0  0  0  0  0  0
   17.6366    3.6044   -9.6639 N   0  0  0  0  0  0  0  0  0  0  0  0
   16.2333    3.8050   -9.6482 C   0  0  0  0  0  0  0  0  0  0  0  0
   15.7533    4.1241  -10.7131 O   0  0  0  0  0  0  0  0  0  0  0  0
   15.1280    3.4336   -8.3454 C   0  0  2  0  0  0  0  0  0  0  0  0
   15.4140    3.7343   -6.8293 C   0  0  0  0  0  0  0  0  0  0  0  0
   16.3599    2.6932   -6.2003 C   0  0  0  0  0  0  0  0  0  0  0  0
   14.2124    3.7770   -5.8469 C   0  0  0  0  0  0  0  0  0  0  0  0
   13.6234    3.5728   -8.6689 N   0  0  0  0  0  0  0  0  0  0  0  0
   12.7465    2.5056   -8.1815 C   0  0  0  0  0  0  0  0  0  0  0  0
   12.8780    4.7146   -8.9672 C   0  0  0  0  0  0  0  0  0  0  0  0
   11.6437    4.7260   -8.8066 O   0  0  0  0  0  0  0  0  0  0  0  0
   13.5014    5.9847   -9.5148 C   0  0  2  0  0  0  0  0  0  0  0  0
   13.7598    5.9446  -11.0682 C   0  0  0  0  0  0  0  0  0  0  0  0
   13.0669    4.9552  -12.1100 C   0  0  0  0  0  0  0  0  0  0  0  0
   13.9670    3.9084  -12.7972 C   0  0  0  0  0  0  0  0  0  0  0  0
   11.7715    4.2473  -11.7211 C   0  0  0  0  0  0  0  0  0  0  0  0
   14.4936    6.4065   -8.4549 N   0  0  0  0  0  0  0  0  0  0  0  0
   13.8202    6.8919   -7.2455 C   0  0  0  0  0  0  0  0  0  0  0  0
   15.5359    7.2958   -8.7205 C   0  0  0  0  0  0  0  0  0  0  0  0
   15.3236    8.4178   -9.1829 O   0  0  0  0  0  0  0  0  0  0  0  0
   16.9632    6.7901   -8.3002 C   0  0  2  0  0  0  0  0  0  0  0  0
   17.4837    7.3694   -6.9323 C   0  0  0  0  0  0  0  0  0  0  0  0
   17.6493    6.3851   -5.7213 C   0  0  0  0  0  0  0  0  0  0  0  0
   18.6174    5.2237   -5.9241 C   0  0  0  0  0  0  0  0  0  0  0  0
   18.1022    7.1292   -4.4544 C   0  0  0  0  0  0  0  0  0  0  0  0
   17.8825    7.0460   -9.4274 N   0  0  0  0  0  0  0  0  0  0  0  0
   17.3179    7.1078  -10.7810 C   0  0  0  0  0  0  0  0  0  0  0  0
   19.2051    6.7167   -9.2990 C   0  0  0  0  0  0  0  0  0  0  0  0
   19.6520    5.9755   -8.4078 O   0  0  0  0  0  0  0  0  0  0  0  0
   20.1502    7.3385  -10.3153 C   0  0  1  0  0  0  0  0  0  0  0  0
   20.0191    8.8431  -10.4583 C   0  0  0  0  0  0  0  0  0  0  0  0
   21.4889    7.0052   -9.8837 N   0  0  0  0  0  0  0  0  0  0  0  0
   22.2799    6.3287  -10.7459 C   0  0  0  0  0  0  0  0  0  0  0  0
   21.8364    5.9827  -11.8369 O   0  0  0  0  0  0  0  0  0  0  0  0
   23.7347    6.1552  -10.4435 C   0  0  2  0  0  0  0  0  0  0  0  0
   24.1715    6.6803   -9.0885 C   0  0  0  0  0  0  0  0  0  0  0  0
   24.3500    6.9052  -11.5059 N   0  0  0  0  0  0  0  0  0  0  0  0
   25.6871    6.7985  -11.7197 C   0  0  0  0  0  0  0  0  0  0  0  0
   26.3844    6.0077  -11.0805 O   0  0  0  0  0  0  0  0  0  0  0  0
   26.2235    7.6211  -12.8831 C   0  0  1  0  0  0  0  0  0  0  0  0
   25.5219    8.8864  -13.4214 C   0  0  0  0  0  0  0  0  0  0  0  0
   24.9194    9.9383  -12.4898 C   0  0  0  0  0  0  0  0  0  0  0  0
   25.9859   10.8270  -11.8695 C   0  0  0  0  0  0  0  0  0  0  0  0
   23.9314   10.7954  -13.3033 C   0  0  0  0  0  0  0  0  0  0  0  0
   27.6919    7.7523  -12.8656 N   0  0  0  0  0  0  0  0  0  0  0  0
   28.3692    7.8768  -11.5824 C   0  0  0  0  0  0  0  0  0  0  0  0
   28.3115    7.2002  -13.9682 C   0  0  0  0  0  0  0  0  0  0  0  0
   27.6362    6.8350  -14.9324 O   0  0  0  0  0  0  0  0  0  0  0  0
   29.8179    7.2892  -14.1442 C   0  0  1  0  0  0  0  0  0  0  0  0
   30.4331    5.9032  -14.4859 C   0  0  0  0  0  0  0  0  0  0  0  0
   30.5028    5.0652  -13.1987 C   0  0  0  0  0  0  0  0  0  0  0  0
   29.6998    5.0388  -15.5280 C   0  0  0  0  0  0  0  0  0  0  0  0
   29.9200    8.3737  -15.1374 N   0  0  0  0  0  0  0  0  0  0  0  0
   29.6023    8.0750  -16.4519 C   0  0  0  0  0  0  0  0  0  0  0  0
   30.4579    7.5369  -17.1622 O   0  0  0  0  0  0  0  0  0  0  0  0
   28.1993    8.5987  -16.9961 C   0  0  1  0  0  0  0  0  0  0  0  0
   28.7105    9.8005  -17.9383 C   0  0  0  0  0  0  0  0  0  0  0  0
   29.0933   11.1323  -17.2111 C   0  0  0  0  0  0  0  0  0  0  0  0
   30.1710   11.9474  -17.9586 C   0  0  0  0  0  0  0  0  0  0  0  0
   27.8538   12.0091  -17.0500 C   0  0  0  0  0  0  0  0  0  0  0  0
   27.3542    7.5082  -17.7688 N   0  0  0  0  0  0  0  0  0  0  0  0
   28.0832    7.0324  -18.9593 C   0  0  0  0  0  0  0  0  0  0  0  0
   26.0769    6.7991  -17.5439 C   0  0  0  0  0  0  0  0  0  0  0  0
   25.6004    6.1909  -18.5184 O   0  0  0  0  0  0  0  0  0  0  0  0
   25.1454    6.6133  -16.1159 C   0  0  0  0  0  0  0  0  0  0  0  0
   23.5536    6.0750  -15.9957 N   0  0  0  0  0  0  0  0  0  0  0  0
   22.7929    6.9103  -16.9105 C   0  0  0  0  0  0  0  0  0  0  0  0
   22.7883    5.9531  -14.6783 C   0  0  0  0  0  0  0  0  0  0  0  0
   23.0310    6.8689  -13.8744 O   0  0  0  0  0  0  0  0  0  0  0  0
   21.6467    4.5491  -14.1724 C   0  0  2  0  0  0  0  0  0  0  0  0
   21.4086    3.5503  -15.3345 C   0  0  0  0  0  0  0  0  0  0  0  0
   22.7039    2.7898  -15.6734 C   0  0  0  0  0  0  0  0  0  0  0  0
   20.8600    4.2110  -16.5971 C   0  0  0  0  0  0  0  0  0  0  0  0
   20.4633    4.2217  -12.8331 N   0  0  0  0  0  0  0  0  0  0  0  0
   19.1828    3.4859  -12.5864 C   0  0  0  0  0  0  0  0  0  0  0  0
   18.5376    3.1398  -13.5878 O   0  0  0  0  0  0  0  0  0  0  0  0
   12.7315   -0.0869   -6.4186 H   0  0  0  0  0  0  0  0  0  0  0  0
   12.9109   -1.8369   -6.5536 H   0  0  0  0  0  0  0  0  0  0  0  0
   12.4043   -0.8763   -7.9599 H   0  0  0  0  0  0  0  0  0  0  0  0
   15.1845   -0.4820   -6.6284 H   0  0  0  0  0  0  0  0  0  0  0  0
   14.2591   -0.9827   -9.4998 H   0  0  0  0  0  0  0  0  0  0  0  0
   16.6797   -1.3157   -9.9256 H   0  0  0  0  0  0  0  0  0  0  0  0
   17.1102   -0.4967   -8.4224 H   0  0  0  0  0  0  0  0  0  0  0  0
   16.6565    1.5473   -9.1998 H   0  0  0  0  0  0  0  0  0  0  0  0
   14.4527    1.3065  -10.2742 H   0  0  0  0  0  0  0  0  0  0  0  0
   15.1245    0.2765  -11.5386 H   0  0  0  0  0  0  0  0  0  0  0  0
   15.4711    1.9899  -11.5388 H   0  0  0  0  0  0  0  0  0  0  0  0
   17.7586    1.0298  -11.9688 H   0  0  0  0  0  0  0  0  0  0  0  0
   18.9588    0.4699   -9.4650 H   0  0  0  0  0  0  0  0  0  0  0  0
   19.4647    2.8736  -10.4085 H   0  0  0  0  0  0  0  0  0  0  0  0
   18.0668    3.4121   -8.7748 H   0  0  0  0  0  0  0  0  0  0  0  0
   15.1961    2.3445   -8.3627 H   0  0  0  0  0  0  0  0  0  0  0  0
   15.8774    4.7064   -6.7757 H   0  0  0  0  0  0  0  0  0  0  0  0
   15.8988    1.7067   -6.1888 H   0  0  0  0  0  0  0  0  0  0  0  0
   16.5801    2.9506   -5.1587 H   0  0  0  0  0  0  0  0  0  0  0  0
   17.3055    2.6235   -6.7430 H   0  0  0  0  0  0  0  0  0  0  0  0
   13.7799    2.7825   -5.6731 H   0  0  0  0  0  0  0  0  0  0  0  0
   13.4064    4.4343   -6.1633 H   0  0  0  0  0  0  0  0  0  0  0  0
   14.5314    4.1451   -4.8600 H   0  0  0  0  0  0  0  0  0  0  0  0
   13.3175    1.6755   -7.7898 H   0  0  0  0  0  0  0  0  0  0  0  0
   12.0984    2.1622   -8.9925 H   0  0  0  0  0  0  0  0  0  0  0  0
   12.0958    2.8794   -7.3751 H   0  0  0  0  0  0  0  0  0  0  0  0
   12.7201    6.7569   -9.4311 H   0  0  0  0  0  0  0  0  0  0  0  0
   13.3936    6.9306  -11.4002 H   0  0  0  0  0  0  0  0  0  0  0  0
   14.8080    6.0332  -11.3182 H   0  0  0  0  0  0  0  0  0  0  0  0
   12.7890    5.6163  -12.9439 H   0  0  0  0  0  0  0  0  0  0  0  0
   13.8396    2.9210  -12.3436 H   0  0  0  0  0  0  0  0  0  0  0  0
   15.0246    4.1751  -12.8227 H   0  0  0  0  0  0  0  0  0  0  0  0
   13.6731    3.7815  -13.8466 H   0  0  0  0  0  0  0  0  0  0  0  0
   11.9406    3.4556  -10.9841 H   0  0  0  0  0  0  0  0  0  0  0  0
   11.3452    3.7324  -12.5936 H   0  0  0  0  0  0  0  0  0  0  0  0
   11.0224    4.9477  -11.3553 H   0  0  0  0  0  0  0  0  0  0  0  0
   12.9704    6.2658   -6.9739 H   0  0  0  0  0  0  0  0  0  0  0  0
   13.4510    7.9103   -7.4090 H   0  0  0  0  0  0  0  0  0  0  0  0
   14.5292    6.9114   -6.4127 H   0  0  0  0  0  0  0  0  0  0  0  0
   16.9295    5.6946   -8.2045 H   0  0  0  0  0  0  0  0  0  0  0  0
   18.4573    7.8550   -7.0824 H   0  0  0  0  0  0  0  0  0  0  0  0
   16.8010    8.1730   -6.6130 H   0  0  0  0  0  0  0  0  0  0  0  0
   16.6618    5.9797   -5.4855 H   0  0  0  0  0  0  0  0  0  0  0  0
   19.6605    5.5655   -5.9918 H   0  0  0  0  0  0  0  0  0  0  0  0
   18.3867    4.6350   -6.8101 H   0  0  0  0  0  0  0  0  0  0  0  0
   18.5771    4.5378   -5.0666 H   0  0  0  0  0  0  0  0  0  0  0  0
   19.1272    7.4968   -4.5527 H   0  0  0  0  0  0  0  0  0  0  0  0
   18.0814    6.4433   -3.5907 H   0  0  0  0  0  0  0  0  0  0  0  0
   17.4451    7.9656   -4.2244 H   0  0  0  0  0  0  0  0  0  0  0  0
   16.6365    6.2799  -10.8887 H   0  0  0  0  0  0  0  0  0  0  0  0
   18.0431    6.9685  -11.5811 H   0  0  0  0  0  0  0  0  0  0  0  0
   16.8192    8.0626  -10.9444 H   0  0  0  0  0  0  0  0  0  0  0  0
   19.9439    6.8658  -11.2763 H   0  0  0  0  0  0  0  0  0  0  0  0
   20.1866    9.3482   -9.5019 H   0  0  0  0  0  0  0  0  0  0  0  0
   19.0279    9.1369  -10.8201 H   0  0  0  0  0  0  0  0  0  0  0  0
   20.7523    9.2146  -11.1785 H   0  0  0  0  0  0  0  0  0  0  0  0
   21.5977    6.7827   -8.8922 H   0  0  0  0  0  0  0  0  0  0  0  0
   23.9776    5.0911  -10.5603 H   0  0  0  0  0  0  0  0  0  0  0  0
   23.9734    7.7557   -9.0104 H   0  0  0  0  0  0  0  0  0  0  0  0
   25.2454    6.5380   -8.9375 H   0  0  0  0  0  0  0  0  0  0  0  0
   23.6446    6.1655   -8.2839 H   0  0  0  0  0  0  0  0  0  0  0  0
   23.7716    7.0742  -12.3458 H   0  0  0  0  0  0  0  0  0  0  0  0
   25.9891    6.8889  -13.6594 H   0  0  0  0  0  0  0  0  0  0  0  0
   24.6769    8.5407  -14.0211 H   0  0  0  0  0  0  0  0  0  0  0  0
   26.1849    9.3844  -14.1464 H   0  0  0  0  0  0  0  0  0  0  0  0
   24.3471    9.4565  -11.6933 H   0  0  0  0  0  0  0  0  0  0  0  0
   26.5763   11.3367  -12.6396 H   0  0  0  0  0  0  0  0  0  0  0  0
   26.6649   10.2456  -11.2450 H   0  0  0  0  0  0  0  0  0  0  0  0
   25.5244   11.5914  -11.2384 H   0  0  0  0  0  0  0  0  0  0  0  0
   24.4311   11.2999  -14.1400 H   0  0  0  0  0  0  0  0  0  0  0  0
   23.4570   11.5562  -12.6784 H   0  0  0  0  0  0  0  0  0  0  0  0
   23.1305   10.1740  -13.7276 H   0  0  0  0  0  0  0  0  0  0  0  0
   27.6916    8.2793  -10.8244 H   0  0  0  0  0  0  0  0  0  0  0  0
   29.2205    8.5549  -11.6743 H   0  0  0  0  0  0  0  0  0  0  0  0
   28.7308    6.8927  -11.2746 H   0  0  0  0  0  0  0  0  0  0  0  0
   30.3116    7.6876  -13.2540 H   0  0  0  0  0  0  0  0  0  0  0  0
   31.4577    6.0663  -14.8431 H   0  0  0  0  0  0  0  0  0  0  0  0
   29.4980    4.8652  -12.8053 H   0  0  0  0  0  0  0  0  0  0  0  0
   31.0766    5.5751  -12.4214 H   0  0  0  0  0  0  0  0  0  0  0  0
   30.9788    4.0974  -13.3916 H   0  0  0  0  0  0  0  0  0  0  0  0
   28.7083    4.7284  -15.1828 H   0  0  0  0  0  0  0  0  0  0  0  0
   30.2633    4.1160  -15.7192 H   0  0  0  0  0  0  0  0  0  0  0  0
   29.5751    5.5235  -16.4904 H   0  0  0  0  0  0  0  0  0  0  0  0
   29.4705    9.2149  -14.7995 H   0  0  0  0  0  0  0  0  0  0  0  0
   27.5782    8.9971  -16.1979 H   0  0  0  0  0  0  0  0  0  0  0  0
   27.9692   10.0137  -18.7134 H   0  0  0  0  0  0  0  0  0  0  0  0
   29.6155    9.4765  -18.4786 H   0  0  0  0  0  0  0  0  0  0  0  0
   29.5035   10.9214  -16.2184 H   0  0  0  0  0  0  0  0  0  0  0  0
   29.8899   12.1493  -18.9975 H   0  0  0  0  0  0  0  0  0  0  0  0
   31.1366   11.4294  -17.9597 H   0  0  0  0  0  0  0  0  0  0  0  0
   30.3362   12.9187  -17.4706 H   0  0  0  0  0  0  0  0  0  0  0  0
   27.4299   12.2641  -18.0282 H   0  0  0  0  0  0  0  0  0  0  0  0
   28.0986   12.9485  -16.5416 H   0  0  0  0  0  0  0  0  0  0  0  0
   27.0902   11.4933  -16.4643 H   0  0  0  0  0  0  0  0  0  0  0  0
   28.9688    6.4722  -18.6393 H   0  0  0  0  0  0  0  0  0  0  0  0
   28.4155    7.8756  -19.5745 H   0  0  0  0  0  0  0  0  0  0  0  0
   27.5153    6.3646  -19.6085 H   0  0  0  0  0  0  0  0  0  0  0  0
   25.6719    5.8672  -15.5213 H   0  0  0  0  0  0  0  0  0  0  0  0
   25.1559    7.5989  -15.6663 H   0  0  0  0  0  0  0  0  0  0  0  0
   21.7230    6.7571  -16.8268 H   0  0  0  0  0  0  0  0  0  0  0  0
   23.1245    6.7260  -17.9401 H   0  0  0  0  0  0  0  0  0  0  0  0
   22.9902    7.9661  -16.6683 H   0  0  0  0  0  0  0  0  0  0  0  0
   22.4512    4.0643  -13.5850 H   0  0  0  0  0  0  0  0  0  0  0  0
   20.6784    2.8076  -15.0114 H   0  0  0  0  0  0  0  0  0  0  0  0
   23.0091    2.1586  -14.8303 H   0  0  0  0  0  0  0  0  0  0  0  0
   23.5353    3.4599  -15.8960 H   0  0  0  0  0  0  0  0  0  0  0  0
   22.5627    2.1398  -16.5446 H   0  0  0  0  0  0  0  0  0  0  0  0
   21.6623    4.5912  -17.2353 H   0  0  0  0  0  0  0  0  0  0  0  0
   20.1683    5.0242  -16.3646 H   0  0  0  0  0  0  0  0  0  0  0  0
   20.3280    3.4756  -17.2079 H   0  0  0  0  0  0  0  0  0  0  0  0
   20.8282    4.7088  -12.0201 H   0  0  0  0  0  0  0  0  0  0  0  0
  1  2  1  0  0  0  0
  1 86  1  0  0  0  0
  1 87  1  0  0  0  0
  1 88  1  0  0  0  0
  2  3  2  0  0  0  0
  2 89  1  0  0  0  0
  3  4  1  0  0  0  0
  3 90  1  0  0  0  0
  4  5  1  0  0  0  0
  4 91  1  0  0  0  0
  4 92  1  0  0  0  0
  5  6  1  0  0  0  0
  5  7  1  0  0  0  0
  5 93  1  6  0  0  0
  6 94  1  0  0  0  0
  6 95  1  0  0  0  0
  6 96  1  0  0  0  0
  7  8  1  0  0  0  0
  7  9  1  0  0  0  0
  7 97  1  1  0  0  0
  8 98  1  0  0  0  0
  9 10  1  0  0  0  0
  9 84  1  0  0  0  0
  9 99  1  0  0  0  0
 10 11  1  0  0  0  0
 10100  1  0  0  0  0
 11 12  2  0  0  0  0
 11 13  1  0  0  0  0
 13 17  1  0  0  0  0
 13 14  1  0  0  0  0
 13101  1  6  0  0  0
 14 15  1  0  0  0  0
 14 16  1  0  0  0  0
 14102  1  0  0  0  0
 15103  1  0  0  0  0
 15104  1  0  0  0  0
 15105  1  0  0  0  0
 16106  1  0  0  0  0
 16107  1  0  0  0  0
 16108  1  0  0  0  0
 17 18  1  0  0  0  0
 17 19  1  0  0  0  0
 18109  1  0  0  0  0
 18110  1  0  0  0  0
 18111  1  0  0  0  0
 19 20  2  0  0  0  0
 19 21  1  0  0  0  0
 21 26  1  0  0  0  0
 21 22  1  0  0  0  0
 21112  1  1  0  0  0
 22 23  1  0  0  0  0
 22113  1  0  0  0  0
 22114  1  0  0  0  0
 23 24  1  0  0  0  0
 23 25  1  0  0  0  0
 23115  1  0  0  0  0
 24116  1  0  0  0  0
 24117  1  0  0  0  0
 24118  1  0  0  0  0
 25119  1  0  0  0  0
 25120  1  0  0  0  0
 25121  1  0  0  0  0
 26 27  1  0  0  0  0
 26 28  1  0  0  0  0
 27122  1  0  0  0  0
 27123  1  0  0  0  0
 27124  1  0  0  0  0
 28 29  2  0  0  0  0
 28 30  1  0  0  0  0
 30 35  1  0  0  0  0
 30 31  1  0  0  0  0
 30125  1  1  0  0  0
 31 32  1  0  0  0  0
 31126  1  0  0  0  0
 31127  1  0  0  0  0
 32 33  1  0  0  0  0
 32 34  1  0  0  0  0
 32128  1  0  0  0  0
 33129  1  0  0  0  0
 33130  1  0  0  0  0
 33131  1  0  0  0  0
 34132  1  0  0  0  0
 34133  1  0  0  0  0
 34134  1  0  0  0  0
 35 36  1  0  0  0  0
 35 37  1  0  0  0  0
 36135  1  0  0  0  0
 36136  1  0  0  0  0
 36137  1  0  0  0  0
 37 38  2  0  0  0  0
 37 39  1  0  0  0  0
 39 40  1  0  0  0  0
 39 41  1  0  0  0  0
 39138  1  6  0  0  0
 40139  1  0  0  0  0
 40140  1  0  0  0  0
 40141  1  0  0  0  0
 41 42  1  0  0  0  0
 41142  1  0  0  0  0
 42 43  2  0  0  0  0
 42 44  1  0  0  0  0
 44 46  1  0  0  0  0
 44 45  1  0  0  0  0
 44143  1  6  0  0  0
 45144  1  0  0  0  0
 45145  1  0  0  0  0
 45146  1  0  0  0  0
 46 47  1  0  0  0  0
 46147  1  0  0  0  0
 47 48  2  0  0  0  0
 47 49  1  0  0  0  0
 49 50  1  0  0  0  0
 49 54  1  0  0  0  0
 49148  1  6  0  0  0
 50 51  1  0  0  0  0
 50149  1  0  0  0  0
 50150  1  0  0  0  0
 51 52  1  0  0  0  0
 51 53  1  0  0  0  0
 51151  1  0  0  0  0
 52152  1  0  0  0  0
 52153  1  0  0  0  0
 52154  1  0  0  0  0
 53155  1  0  0  0  0
 53156  1  0  0  0  0
 53157  1  0  0  0  0
 54 55  1  0  0  0  0
 54 56  1  0  0  0  0
 55158  1  0  0  0  0
 55159  1  0  0  0  0
 55160  1  0  0  0  0
 56 57  2  0  0  0  0
 56 58  1  0  0  0  0
 58 59  1  0  0  0  0
 58 62  1  0  0  0  0
 58161  1  1  0  0  0
 59 60  1  0  0  0  0
 59 61  1  0  0  0  0
 59162  1  0  0  0  0
 60163  1  0  0  0  0
 60164  1  0  0  0  0
 60165  1  0  0  0  0
 61166  1  0  0  0  0
 61167  1  0  0  0  0
 61168  1  0  0  0  0
 62 63  1  0  0  0  0
 62169  1  0  0  0  0
 63 64  2  0  0  0  0
 63 65  1  0  0  0  0
 65 66  1  0  0  0  0
 65 70  1  0  0  0  0
 65170  1  1  0  0  0
 66 67  1  0  0  0  0
 66171  1  0  0  0  0
 66172  1  0  0  0  0
 67 68  1  0  0  0  0
 67 69  1  0  0  0  0
 67173  1  0  0  0  0
 68174  1  0  0  0  0
 68175  1  0  0  0  0
 68176  1  0  0  0  0
 69177  1  0  0  0  0
 69178  1  0  0  0  0
 69179  1  0  0  0  0
 70 71  1  0  0  0  0
 70 72  1  0  0  0  0
 71180  1  0  0  0  0
 71181  1  0  0  0  0
 71182  1  0  0  0  0
 72 73  2  0  0  0  0
 72 74  1  0  0  0  0
 74 75  1  0  0  0  0
 74183  1  0  0  0  0
 74184  1  0  0  0  0
 75 76  1  0  0  0  0
 75 77  1  0  0  0  0
 76185  1  0  0  0  0
 76186  1  0  0  0  0
 76187  1  0  0  0  0
 77 78  2  0  0  0  0
 77 79  1  0  0  0  0
 79 83  1  0  0  0  0
 79 80  1  0  0  0  0
 79188  1  1  0  0  0
 80 81  1  0  0  0  0
 80 82  1  0  0  0  0
 80189  1  0  0  0  0
 81190  1  0  0  0  0
 81191  1  0  0  0  0
 81192  1  0  0  0  0
 82193  1  0  0  0  0
 82194  1  0  0  0  0
 82195  1  0  0  0  0
 83 84  1  0  0  0  0
 83196  1  0  0  0  0
 84 85  2  0  0  0  0
M  END
>  <Energy>
710.327

$$$$