25156415
  -OEChem-03242010103D

 65 67  0     0  0  0  0  0  0999 V2000
   -2.8045   -0.5038   -1.1553 O   0  0  0  0  0  0  0  0  0  0  0  0
    3.3619    1.8136   -2.3550 O   0  0  0  0  0  0  0  0  0  0  0  0
    1.3732   -2.9563    0.5305 N   0  0  0  0  0  0  0  0  0  0  0  0
    3.5406   -1.3610    1.5865 N   0  0  0  0  0  0  0  0  0  0  0  0
    1.8367   -3.1207    1.9138 C   0  0  0  0  0  0  0  0  0  0  0  0
    2.4740   -2.5026   -0.3279 C   0  0  0  0  0  0  0  0  0  0  0  0
    2.4407   -1.8164    2.4454 C   0  0  0  0  0  0  0  0  0  0  0  0
    3.0771   -1.1976    0.2031 C   0  0  0  0  0  0  0  0  0  0  0  0
    0.7991   -4.2014    0.0241 C   0  0  0  0  0  0  0  0  0  0  0  0
   -0.1316   -3.9160   -1.1534 C   0  0  0  0  0  0  0  0  0  0  0  0
   -1.2693   -2.9772   -0.7447 C   0  0  0  0  0  0  0  0  0  0  0  0
    4.1128   -0.1149    2.0927 C   0  0  0  0  0  0  0  0  0  0  0  0
   -2.2233   -2.7179   -1.9143 C   0  0  0  0  0  0  0  0  0  0  0  0
   -3.3467   -1.7588   -1.5400 C   0  0  0  0  0  0  0  0  0  0  0  0
   -3.5133    0.2200   -0.2313 C   0  0  0  0  0  0  0  0  0  0  0  0
   -2.8622    1.0799    0.6531 C   0  0  0  0  0  0  0  0  0  0  0  0
   -1.3777    1.2338    0.6136 C   0  0  0  0  0  0  0  0  0  0  0  0
   -0.9009    2.5422   -0.0460 C   0  0  0  0  0  0  0  0  0  0  0  0
   -4.9011    0.0885   -0.1816 C   0  0  0  0  0  0  0  0  0  0  0  0
   -3.5988    1.8080    1.5874 C   0  0  0  0  0  0  0  0  0  0  0  0
    0.6023    2.6633   -0.1086 C   0  0  0  0  0  0  0  0  0  0  0  0
   -5.6376    0.8165    0.7527 C   0  0  0  0  0  0  0  0  0  0  0  0
   -4.9865    1.6763    1.6373 C   0  0  0  0  0  0  0  0  0  0  0  0
    1.2960    2.1759   -1.2163 C   0  0  0  0  0  0  0  0  0  0  0  0
    1.2978    3.2629    0.9414 C   0  0  0  0  0  0  0  0  0  0  0  0
    2.6850    2.2883   -1.2741 C   0  0  0  0  0  0  0  0  0  0  0  0
    2.6869    3.3752    0.8836 C   0  0  0  0  0  0  0  0  0  0  0  0
    3.3805    2.8880   -0.2241 C   0  0  0  0  0  0  0  0  0  0  0  0
    2.5889    1.2122   -3.3927 C   0  0  0  0  0  0  0  0  0  0  0  0
    2.5775   -3.9288    1.9842 H   0  0  0  0  0  0  0  0  0  0  0  0
    0.9929   -3.3927    2.5596 H   0  0  0  0  0  0  0  0  0  0  0  0
    2.1200   -2.3071   -1.3457 H   0  0  0  0  0  0  0  0  0  0  0  0
    3.2601   -3.2669   -0.3971 H   0  0  0  0  0  0  0  0  0  0  0  0
    1.6568   -1.0500    2.5171 H   0  0  0  0  0  0  0  0  0  0  0  0
    2.8140   -1.9974    3.4607 H   0  0  0  0  0  0  0  0  0  0  0  0
    3.9179   -0.9152   -0.4418 H   0  0  0  0  0  0  0  0  0  0  0  0
    2.3275   -0.3989    0.1386 H   0  0  0  0  0  0  0  0  0  0  0  0
    1.5741   -4.9224   -0.2650 H   0  0  0  0  0  0  0  0  0  0  0  0
    0.1989   -4.6878    0.8046 H   0  0  0  0  0  0  0  0  0  0  0  0
    0.4165   -3.5007   -2.0062 H   0  0  0  0  0  0  0  0  0  0  0  0
   -0.5567   -4.8676   -1.4966 H   0  0  0  0  0  0  0  0  0  0  0  0
   -0.8603   -2.0224   -0.3983 H   0  0  0  0  0  0  0  0  0  0  0  0
   -1.8285   -3.4132    0.0921 H   0  0  0  0  0  0  0  0  0  0  0  0
    4.9419    0.2170    1.4581 H   0  0  0  0  0  0  0  0  0  0  0  0
    4.5254   -0.2646    3.0966 H   0  0  0  0  0  0  0  0  0  0  0  0
    3.3707    0.6884    2.1445 H   0  0  0  0  0  0  0  0  0  0  0  0
   -2.6534   -3.6640   -2.2626 H   0  0  0  0  0  0  0  0  0  0  0  0
   -1.6509   -2.2881   -2.7456 H   0  0  0  0  0  0  0  0  0  0  0  0
   -4.0019   -1.6138   -2.4065 H   0  0  0  0  0  0  0  0  0  0  0  0
   -3.9208   -2.2270   -0.7296 H   0  0  0  0  0  0  0  0  0  0  0  0
   -0.9935    1.1843    1.6423 H   0  0  0  0  0  0  0  0  0  0  0  0
   -0.9085    0.3806    0.1086 H   0  0  0  0  0  0  0  0  0  0  0  0
   -1.3091    3.4075    0.4928 H   0  0  0  0  0  0  0  0  0  0  0  0
   -1.3127    2.6165   -1.0616 H   0  0  0  0  0  0  0  0  0  0  0  0
   -5.4525   -0.5443   -0.8707 H   0  0  0  0  0  0  0  0  0  0  0  0
   -3.1037    2.4811    2.2825 H   0  0  0  0  0  0  0  0  0  0  0  0
   -6.7189    0.7200    0.7873 H   0  0  0  0  0  0  0  0  0  0  0  0
   -5.5602    2.2443    2.3637 H   0  0  0  0  0  0  0  0  0  0  0  0
    0.7051    1.7156   -2.0014 H   0  0  0  0  0  0  0  0  0  0  0  0
    0.7685    3.6438    1.8107 H   0  0  0  0  0  0  0  0  0  0  0  0
    3.2287    3.8402    1.7020 H   0  0  0  0  0  0  0  0  0  0  0  0
    4.4627    2.9766   -0.2625 H   0  0  0  0  0  0  0  0  0  0  0  0
    3.2881    0.8921   -4.1721 H   0  0  0  0  0  0  0  0  0  0  0  0
    1.9042    1.9320   -3.8538 H   0  0  0  0  0  0  0  0  0  0  0  0
    2.0719    0.3133   -3.0393 H   0  0  0  0  0  0  0  0  0  0  0  0
  1 14  1  0  0  0  0
  1 15  1  0  0  0  0
  2 26  1  0  0  0  0
  2 29  1  0  0  0  0
  3  5  1  0  0  0  0
  3  6  1  0  0  0  0
  3  9  1  0  0  0  0
  4  7  1  0  0  0  0
  4  8  1  0  0  0  0
  4 12  1  0  0  0  0
  5  7  1  0  0  0  0
  5 30  1  0  0  0  0
  5 31  1  0  0  0  0
  6  8  1  0  0  0  0
  6 32  1  0  0  0  0
  6 33  1  0  0  0  0
  7 34  1  0  0  0  0
  7 35  1  0  0  0  0
  8 36  1  0  0  0  0
  8 37  1  0  0  0  0
  9 10  1  0  0  0  0
  9 38  1  0  0  0  0
  9 39  1  0  0  0  0
 10 11  1  0  0  0  0
 10 40  1  0  0  0  0
 10 41  1  0  0  0  0
 11 13  1  0  0  0  0
 11 42  1  0  0  0  0
 11 43  1  0  0  0  0
 12 44  1  0  0  0  0
 12 45  1  0  0  0  0
 12 46  1  0  0  0  0
 13 14  1  0  0  0  0
 13 47  1  0  0  0  0
 13 48  1  0  0  0  0
 14 49  1  0  0  0  0
 14 50  1  0  0  0  0
 15 16  1  0  0  0  0
 15 19  2  0  0  0  0
 16 17  1  0  0  0  0
 16 20  2  0  0  0  0
 17 18  1  0  0  0  0
 17 51  1  0  0  0  0
 17 52  1  0  0  0  0
 18 21  1  0  0  0  0
 18 53  1  0  0  0  0
 18 54  1  0  0  0  0
 19 22  1  0  0  0  0
 19 55  1  0  0  0  0
 20 23  1  0  0  0  0
 20 56  1  0  0  0  0
 21 24  2  0  0  0  0
 21 25  1  0  0  0  0
 22 23  2  0  0  0  0
 22 57  1  0  0  0  0
 23 58  1  0  0  0  0
 24 26  1  0  0  0  0
 24 59  1  0  0  0  0
 25 27  2  0  0  0  0
 25 60  1  0  0  0  0
 26 28  2  0  0  0  0
 27 28  1  0  0  0  0
 27 61  1  0  0  0  0
 28 62  1  0  0  0  0
 29 63  1  0  0  0  0
 29 64  1  0  0  0  0
 29 65  1  0  0  0  0
M  END
> <PUBCHEM_COMPOUND_CID>
25156415

> <PUBCHEM_CONFORMER_RMSD>
1.6

> <PUBCHEM_CONFORMER_DIVERSEORDER>
1
96
74
54
86
15
80
105
28
69
12
75
23
72
77
70
30
112
68
52
51
115
103
16
64
62
45
102
27
101
95
48
107
37
25
61
7
73
39
29
5
78
65
3
104
66
42
40
83
81
99
59
84
55
18
71
67
63
88
76
33
110
85
92
90
38
36
20
2
111
11
98
116
93
97
100
10
91
60
17
31
109
58
34
43
114
87
82
50
49
44
41
26
46
8
13
35
19
32
21
89
47
94
9
113
4
108
53
56
106
22
24
57
79
6
14

> <PUBCHEM_MMFF94_PARTIAL_CHARGES>
34
1 -0.36
12 0.27
14 0.28
15 0.08
16 -0.14
17 0.14
18 0.14
19 -0.15
2 -0.36
20 -0.15
21 -0.14
22 -0.15
23 -0.15
24 -0.15
25 -0.15
26 0.08
27 -0.15
28 -0.15
29 0.28
3 -0.81
4 -0.81
5 0.27
55 0.15
56 0.15
57 0.15
58 0.15
59 0.15
6 0.27
60 0.15
61 0.15
62 0.15
7 0.27
8 0.27
9 0.27

> <PUBCHEM_EFFECTIVE_ROTOR_COUNT>
12.2

> <PUBCHEM_PHARMACOPHORE_FEATURES>
7
1 1 acceptor
1 2 acceptor
1 3 cation
1 4 cation
6 15 16 19 20 22 23 rings
6 21 24 25 26 27 28 rings
6 3 4 5 6 7 8 rings

> <PUBCHEM_HEAVY_ATOM_COUNT>
29

> <PUBCHEM_ATOM_DEF_STEREO_COUNT>
0

> <PUBCHEM_ATOM_UDEF_STEREO_COUNT>
0

> <PUBCHEM_BOND_DEF_STEREO_COUNT>
0

> <PUBCHEM_BOND_UDEF_STEREO_COUNT>
0

> <PUBCHEM_ISOTOPIC_ATOM_COUNT>
0

> <PUBCHEM_COMPONENT_COUNT>
1

> <PUBCHEM_CACTVS_TAUTO_COUNT>
1

> <PUBCHEM_CONFORMER_ID>
017FDB3F00000001

> <PUBCHEM_MMFF94_ENERGY>
75.6729

> <PUBCHEM_FEATURE_SELFOVERLAP>
35.524

> <PUBCHEM_SHAPE_FINGERPRINT>
1100329 8 18412545422612153214
12553582 1 18266454296008073323
12712778 12 16823863528523512976
13122387 1 18195794177012259514
14725015 67 15886573206206345577
14840074 17 18336823100325725162
14863182 85 18334579036439730384
15297060 5 17989203772211099658
15351339 4 17400891572686643787
161222 10 18271800250602569474
20764821 26 18041284381984829907
20775530 9 17902511480743538018
21421861 104 18338242574254230720
21796203 349 18193299419778400682
23558518 356 17690850385433330909
3187 122 17543633028831808323
35225 105 17252066046737373006
445580 8 18339080384770618063
460360 51 18191872223832694381
463206 1 18337387253049675344
474144 1 18336273353244150973
5895379 119 18129936914091081078
6287921 2 18057040207686284571

> <PUBCHEM_SHAPE_MULTIPOLES>
575.11
9.12
5.92
2.47
9.8
3.47
-0.83
-3.64
2.44
-3.71
-0.24
-2.1
0.18
-3.86

> <PUBCHEM_SHAPE_SELFOVERLAP>
1184.391

> <PUBCHEM_SHAPE_VOLUME>
331.7

> <PUBCHEM_COORDINATE_TYPE>
2
5
10

$$$$