25156130
  -OEChem-03242010103D

 67 70  0     0  0  0  0  0  0999 V2000
   -2.5470    1.6893   -0.7747 O   0  0  0  0  0  0  0  0  0  0  0  0
    4.7879   -1.7749   -0.3190 O   0  0  0  0  0  0  0  0  0  0  0  0
   -2.5409   -2.7528    2.0614 O   0  0  0  0  0  0  0  0  0  0  0  0
    1.1260    1.6346   -0.4717 N   0  0  0  0  0  0  0  0  0  0  0  0
    3.8567    0.8672   -0.1348 N   0  0  0  0  0  0  0  0  0  0  0  0
    2.1625    2.1636   -1.3665 C   0  0  0  0  0  0  0  0  0  0  0  0
    1.4676    0.2655   -0.0663 C   0  0  0  0  0  0  0  0  0  0  0  0
    3.5269    2.1905   -0.6729 C   0  0  0  0  0  0  0  0  0  0  0  0
    2.8080    0.2298    0.6714 C   0  0  0  0  0  0  0  0  0  0  0  0
   -0.1812    1.6644   -1.1268 C   0  0  0  0  0  0  0  0  0  0  0  0
    5.1891    0.5443    0.1455 C   0  0  0  0  0  0  0  0  0  0  0  0
   -1.2987    1.6420   -0.0961 C   0  0  0  0  0  0  0  0  0  0  0  0
    5.6360   -0.7734    0.0488 C   0  0  0  0  0  0  0  0  0  0  0  0
    6.0735    1.5547    0.5234 C   0  0  0  0  0  0  0  0  0  0  0  0
    6.9672   -1.0808    0.3301 C   0  0  0  0  0  0  0  0  0  0  0  0
   -3.6748    1.6575    0.0034 C   0  0  0  0  0  0  0  0  0  0  0  0
    7.4047    1.2474    0.8045 C   0  0  0  0  0  0  0  0  0  0  0  0
   -4.8569    1.0941   -0.4769 C   0  0  0  0  0  0  0  0  0  0  0  0
   -4.9213    0.5107   -1.8497 C   0  0  0  0  0  0  0  0  0  0  0  0
    7.8515   -0.0704    0.7079 C   0  0  0  0  0  0  0  0  0  0  0  0
   -4.8966   -1.0297   -1.8776 C   0  0  0  0  0  0  0  0  0  0  0  0
   -3.6316    2.1975    1.2887 C   0  0  0  0  0  0  0  0  0  0  0  0
   -5.9958    1.0708    0.3281 C   0  0  0  0  0  0  0  0  0  0  0  0
   -3.6667   -1.6168   -1.2288 C   0  0  0  0  0  0  0  0  0  0  0  0
   -4.7705    2.1743    2.0936 C   0  0  0  0  0  0  0  0  0  0  0  0
   -5.9527    1.6110    1.6133 C   0  0  0  0  0  0  0  0  0  0  0  0
    5.3327   -3.0908   -0.3912 C   0  0  0  0  0  0  0  0  0  0  0  0
   -3.6722   -1.9166    0.1334 C   0  0  0  0  0  0  0  0  0  0  0  0
   -2.5246   -1.8596   -1.9919 C   0  0  0  0  0  0  0  0  0  0  0  0
   -2.5356   -2.4595    0.7325 C   0  0  0  0  0  0  0  0  0  0  0  0
   -1.3879   -2.4023   -1.3928 C   0  0  0  0  0  0  0  0  0  0  0  0
   -1.3934   -2.7023   -0.0306 C   0  0  0  0  0  0  0  0  0  0  0  0
   -3.7416   -2.4795    2.7821 C   0  0  0  0  0  0  0  0  0  0  0  0
    1.9160    3.1894   -1.6665 H   0  0  0  0  0  0  0  0  0  0  0  0
    2.2262    1.5608   -2.2825 H   0  0  0  0  0  0  0  0  0  0  0  0
    1.5162   -0.3987   -0.9399 H   0  0  0  0  0  0  0  0  0  0  0  0
    0.7119   -0.1450    0.6115 H   0  0  0  0  0  0  0  0  0  0  0  0
    4.2750    2.5081   -1.4099 H   0  0  0  0  0  0  0  0  0  0  0  0
    3.5106    2.9307    0.1375 H   0  0  0  0  0  0  0  0  0  0  0  0
    2.7198    0.7691    1.6242 H   0  0  0  0  0  0  0  0  0  0  0  0
    3.0306   -0.8103    0.9265 H   0  0  0  0  0  0  0  0  0  0  0  0
   -0.3025    0.8516   -1.8550 H   0  0  0  0  0  0  0  0  0  0  0  0
   -0.3002    2.5906   -1.7060 H   0  0  0  0  0  0  0  0  0  0  0  0
   -1.1596    2.5296    0.5309 H   0  0  0  0  0  0  0  0  0  0  0  0
   -1.2603    0.7408    0.5249 H   0  0  0  0  0  0  0  0  0  0  0  0
    5.7595    2.5896    0.6246 H   0  0  0  0  0  0  0  0  0  0  0  0
    7.3865   -2.0794    0.2771 H   0  0  0  0  0  0  0  0  0  0  0  0
    8.0929    2.0332    1.1021 H   0  0  0  0  0  0  0  0  0  0  0  0
   -5.8422    0.8560   -2.3385 H   0  0  0  0  0  0  0  0  0  0  0  0
   -4.1087    0.8969   -2.4777 H   0  0  0  0  0  0  0  0  0  0  0  0
    8.8882   -0.3086    0.9280 H   0  0  0  0  0  0  0  0  0  0  0  0
   -4.9587   -1.3710   -2.9189 H   0  0  0  0  0  0  0  0  0  0  0  0
   -5.7919   -1.4307   -1.3847 H   0  0  0  0  0  0  0  0  0  0  0  0
   -2.7531    2.6692    1.7127 H   0  0  0  0  0  0  0  0  0  0  0  0
   -6.9231    0.6348   -0.0341 H   0  0  0  0  0  0  0  0  0  0  0  0
   -4.7392    2.5988    3.0929 H   0  0  0  0  0  0  0  0  0  0  0  0
   -6.8397    1.5935    2.2399 H   0  0  0  0  0  0  0  0  0  0  0  0
    4.5203   -3.7583   -0.6973 H   0  0  0  0  0  0  0  0  0  0  0  0
    5.6770   -3.4400    0.5882 H   0  0  0  0  0  0  0  0  0  0  0  0
    6.1100   -3.1651   -1.1593 H   0  0  0  0  0  0  0  0  0  0  0  0
   -4.5884   -1.7192    0.6790 H   0  0  0  0  0  0  0  0  0  0  0  0
   -2.5069   -1.6265   -3.0531 H   0  0  0  0  0  0  0  0  0  0  0  0
   -0.4973   -2.5882   -1.9860 H   0  0  0  0  0  0  0  0  0  0  0  0
   -0.5041   -3.1227    0.4309 H   0  0  0  0  0  0  0  0  0  0  0  0
   -3.5667   -2.7701    3.8232 H   0  0  0  0  0  0  0  0  0  0  0  0
   -4.5772   -3.0864    2.4174 H   0  0  0  0  0  0  0  0  0  0  0  0
   -3.9749   -1.4091    2.7845 H   0  0  0  0  0  0  0  0  0  0  0  0
  1 12  1  0  0  0  0
  1 16  1  0  0  0  0
  2 13  1  0  0  0  0
  2 27  1  0  0  0  0
  3 30  1  0  0  0  0
  3 33  1  0  0  0  0
  4  6  1  0  0  0  0
  4  7  1  0  0  0  0
  4 10  1  0  0  0  0
  5  8  1  0  0  0  0
  5  9  1  0  0  0  0
  5 11  1  0  0  0  0
  6  8  1  0  0  0  0
  6 34  1  0  0  0  0
  6 35  1  0  0  0  0
  7  9  1  0  0  0  0
  7 36  1  0  0  0  0
  7 37  1  0  0  0  0
  8 38  1  0  0  0  0
  8 39  1  0  0  0  0
  9 40  1  0  0  0  0
  9 41  1  0  0  0  0
 10 12  1  0  0  0  0
 10 42  1  0  0  0  0
 10 43  1  0  0  0  0
 11 13  1  0  0  0  0
 11 14  2  0  0  0  0
 12 44  1  0  0  0  0
 12 45  1  0  0  0  0
 13 15  2  0  0  0  0
 14 17  1  0  0  0  0
 14 46  1  0  0  0  0
 15 20  1  0  0  0  0
 15 47  1  0  0  0  0
 16 18  1  0  0  0  0
 16 22  2  0  0  0  0
 17 20  2  0  0  0  0
 17 48  1  0  0  0  0
 18 19  1  0  0  0  0
 18 23  2  0  0  0  0
 19 21  1  0  0  0  0
 19 49  1  0  0  0  0
 19 50  1  0  0  0  0
 20 51  1  0  0  0  0
 21 24  1  0  0  0  0
 21 52  1  0  0  0  0
 21 53  1  0  0  0  0
 22 25  1  0  0  0  0
 22 54  1  0  0  0  0
 23 26  1  0  0  0  0
 23 55  1  0  0  0  0
 24 28  2  0  0  0  0
 24 29  1  0  0  0  0
 25 26  2  0  0  0  0
 25 56  1  0  0  0  0
 26 57  1  0  0  0  0
 27 58  1  0  0  0  0
 27 59  1  0  0  0  0
 27 60  1  0  0  0  0
 28 30  1  0  0  0  0
 28 61  1  0  0  0  0
 29 31  2  0  0  0  0
 29 62  1  0  0  0  0
 30 32  2  0  0  0  0
 31 32  1  0  0  0  0
 31 63  1  0  0  0  0
 32 64  1  0  0  0  0
 33 65  1  0  0  0  0
 33 66  1  0  0  0  0
 33 67  1  0  0  0  0
M  END
> <PUBCHEM_COMPOUND_CID>
25156130

> <PUBCHEM_CONFORMER_RMSD>
1.6

> <PUBCHEM_CONFORMER_DIVERSEORDER>
9
27
20
79
21
66
12
41
34
1
82
69
29
76
25
11
74
80
39
61
44
84
78
57
71
85
30
49
8
47
67
55
35
32
13
24
22
15
23
51
14
60
70
64
50
43
48
77
10
18
46
62
58
7
37
68
75
73
19
38
53
26
40
65
59
4
17
31
52
81
45
28
56
63
6
36
54
3
72
42
83
5
33
16
2

> <PUBCHEM_MMFF94_PARTIAL_CHARGES>
45
1 -0.36
10 0.27
11 0.1
12 0.28
13 0.08
14 -0.15
15 -0.15
16 0.08
17 -0.15
18 -0.14
19 0.14
2 -0.36
20 -0.15
21 0.14
22 -0.15
23 -0.15
24 -0.14
25 -0.15
26 -0.15
27 0.28
28 -0.15
29 -0.15
3 -0.36
30 0.08
31 -0.15
32 -0.15
33 0.28
4 -0.81
46 0.15
47 0.15
48 0.15
5 -0.84
51 0.15
54 0.15
55 0.15
56 0.15
57 0.15
6 0.27
61 0.15
62 0.15
63 0.15
64 0.15
7 0.27
8 0.37
9 0.37

> <PUBCHEM_EFFECTIVE_ROTOR_COUNT>
11.2

> <PUBCHEM_PHARMACOPHORE_FEATURES>
9
1 1 acceptor
1 2 acceptor
1 3 acceptor
1 4 cation
1 5 cation
6 11 13 14 15 17 20 rings
6 16 18 22 23 25 26 rings
6 24 28 29 30 31 32 rings
6 4 5 6 7 8 9 rings

> <PUBCHEM_HEAVY_ATOM_COUNT>
33

> <PUBCHEM_ATOM_DEF_STEREO_COUNT>
0

> <PUBCHEM_ATOM_UDEF_STEREO_COUNT>
0

> <PUBCHEM_BOND_DEF_STEREO_COUNT>
0

> <PUBCHEM_BOND_UDEF_STEREO_COUNT>
0

> <PUBCHEM_ISOTOPIC_ATOM_COUNT>
0

> <PUBCHEM_COMPONENT_COUNT>
1

> <PUBCHEM_CACTVS_TAUTO_COUNT>
1

> <PUBCHEM_CONFORMER_ID>
017FDA2200000009

> <PUBCHEM_MMFF94_ENERGY>
123.662

> <PUBCHEM_FEATURE_SELFOVERLAP>
45.675

> <PUBCHEM_SHAPE_FINGERPRINT>
10677351 27 18188507821562354926
11007060 377 18334284366969681517
11135609 12 18041286568307734248
11315181 36 18201432614537186445
11443803 9 17988929917360901153
12422481 6 18339378399650639330
13947920 75 18341603828465204889
14394314 77 18342458089340683593
14844126 61 18130223865409056765
15021287 119 17967252005050568052
15183329 4 18410002231011244166
15361156 5 18335424590850718286
15799311 1 18335712645738620196
16110190 28 18409171017120894428
16112460 7 18340207384357705568
21236236 1 18342452664416271004
23559900 14 18268134526075222208
3383291 50 18339357573987756415
3459 83 18339077095052678606
3633792 109 18337375064428452941
3663271 9 17846212237916510872
4073 2 18408604786450418264
460360 51 18338253633878654062
469060 322 15430318113604463067
484985 159 17822291353289956243
5104073 3 18336548338921605192
58260988 114 17458917053976545043
6009941 240 17968088733646763622
6086070 43 17060049372283019074
9981440 41 18202008720539717151

> <PUBCHEM_SHAPE_MULTIPOLES>
651.55
19.74
3.65
1.9
31.31
1.81
-0.58
-2.59
-4.69
-1.96
-0.53
-3.61
0.61
-0.79

> <PUBCHEM_SHAPE_SELFOVERLAP>
1385.488

> <PUBCHEM_SHAPE_VOLUME>
363.2

> <PUBCHEM_COORDINATE_TYPE>
2
5
10

$$$$