25158433
  -OEChem-03242010103D

 69 72  0     0  0  0  0  0  0999 V2000
    7.9620   -1.1644    0.9316 Cl  0  0  0  0  0  0  0  0  0  0  0  0
   -3.9952    1.7993   -0.2788 O   0  0  0  0  0  0  0  0  0  0  0  0
    1.3168   -1.9236    1.3823 O   0  0  0  0  0  0  0  0  0  0  0  0
    1.0813    2.1522    0.8019 N   0  0  0  0  0  0  0  0  0  0  0  0
    3.6383    1.3446   -0.1825 N   0  0  0  0  0  0  0  0  0  0  0  0
    1.2636    1.8382   -0.6206 C   0  0  0  0  0  0  0  0  0  0  0  0
    2.3084    2.7494    1.3427 C   0  0  0  0  0  0  0  0  0  0  0  0
    2.4131    0.8479   -0.8214 C   0  0  0  0  0  0  0  0  0  0  0  0
    3.4935    1.7900    1.2067 C   0  0  0  0  0  0  0  0  0  0  0  0
   -0.0536    3.0559    0.9862 C   0  0  0  0  0  0  0  0  0  0  0  0
   -1.3687    2.2873    0.8700 C   0  0  0  0  0  0  0  0  0  0  0  0
    4.8636    0.8321   -0.6229 C   0  0  0  0  0  0  0  0  0  0  0  0
   -2.5687    3.2154    1.0507 C   0  0  0  0  0  0  0  0  0  0  0  0
   -3.8849    2.4526    0.9787 C   0  0  0  0  0  0  0  0  0  0  0  0
    5.7037    0.1670    0.2702 C   0  0  0  0  0  0  0  0  0  0  0  0
    5.2442    0.9854   -1.9561 C   0  0  0  0  0  0  0  0  0  0  0  0
    6.9242   -0.3449   -0.1701 C   0  0  0  0  0  0  0  0  0  0  0  0
    6.4648    0.4736   -2.3963 C   0  0  0  0  0  0  0  0  0  0  0  0
   -5.1419    1.0834   -0.5050 C   0  0  0  0  0  0  0  0  0  0  0  0
    7.3048   -0.1916   -1.5032 C   0  0  0  0  0  0  0  0  0  0  0  0
   -5.0879   -0.2855   -0.7675 C   0  0  0  0  0  0  0  0  0  0  0  0
   -3.7798   -1.0038   -0.8067 C   0  0  0  0  0  0  0  0  0  0  0  0
   -3.4947   -1.8553    0.4455 C   0  0  0  0  0  0  0  0  0  0  0  0
   -6.3726    1.7391   -0.4713 C   0  0  0  0  0  0  0  0  0  0  0  0
   -6.2647   -0.9986   -0.9964 C   0  0  0  0  0  0  0  0  0  0  0  0
   -2.1529   -2.5449    0.4032 C   0  0  0  0  0  0  0  0  0  0  0  0
   -7.5492    1.0259   -0.7002 C   0  0  0  0  0  0  0  0  0  0  0  0
   -7.4954   -0.3429   -0.9628 C   0  0  0  0  0  0  0  0  0  0  0  0
   -1.0242   -1.9073    0.9182 C   0  0  0  0  0  0  0  0  0  0  0  0
   -2.0416   -3.8201   -0.1509 C   0  0  0  0  0  0  0  0  0  0  0  0
    0.2157   -2.5451    0.8793 C   0  0  0  0  0  0  0  0  0  0  0  0
   -0.8017   -4.4579   -0.1900 C   0  0  0  0  0  0  0  0  0  0  0  0
    0.3269   -3.8203    0.3251 C   0  0  0  0  0  0  0  0  0  0  0  0
    2.5528   -2.6332    1.3108 C   0  0  0  0  0  0  0  0  0  0  0  0
    1.4665    2.7514   -1.1967 H   0  0  0  0  0  0  0  0  0  0  0  0
    0.3680    1.3778   -1.0493 H   0  0  0  0  0  0  0  0  0  0  0  0
    2.1801    2.9789    2.4076 H   0  0  0  0  0  0  0  0  0  0  0  0
    2.5374    3.6933    0.8297 H   0  0  0  0  0  0  0  0  0  0  0  0
    2.1527   -0.1273   -0.3966 H   0  0  0  0  0  0  0  0  0  0  0  0
    2.5490    0.7011   -1.8990 H   0  0  0  0  0  0  0  0  0  0  0  0
    4.3960    2.3159    1.5424 H   0  0  0  0  0  0  0  0  0  0  0  0
    3.3402    0.9233    1.8627 H   0  0  0  0  0  0  0  0  0  0  0  0
   -0.0214    3.4932    1.9930 H   0  0  0  0  0  0  0  0  0  0  0  0
   -0.0227    3.8945    0.2786 H   0  0  0  0  0  0  0  0  0  0  0  0
   -1.4017    1.5005    1.6339 H   0  0  0  0  0  0  0  0  0  0  0  0
   -1.4510    1.7938   -0.1031 H   0  0  0  0  0  0  0  0  0  0  0  0
   -2.5496    3.9758    0.2604 H   0  0  0  0  0  0  0  0  0  0  0  0
   -2.5033    3.7347    2.0136 H   0  0  0  0  0  0  0  0  0  0  0  0
   -3.9323    1.7079    1.7828 H   0  0  0  0  0  0  0  0  0  0  0  0
   -4.7030    3.1674    1.1202 H   0  0  0  0  0  0  0  0  0  0  0  0
    5.4197    0.0234    1.3096 H   0  0  0  0  0  0  0  0  0  0  0  0
    4.6105    1.5130   -2.6643 H   0  0  0  0  0  0  0  0  0  0  0  0
    6.7626    0.5958   -3.4335 H   0  0  0  0  0  0  0  0  0  0  0  0
    8.2534   -0.5843   -1.8602 H   0  0  0  0  0  0  0  0  0  0  0  0
   -3.7626   -1.6495   -1.6961 H   0  0  0  0  0  0  0  0  0  0  0  0
   -2.9524   -0.3008   -0.9667 H   0  0  0  0  0  0  0  0  0  0  0  0
   -4.2829   -2.6081    0.5793 H   0  0  0  0  0  0  0  0  0  0  0  0
   -3.5461   -1.2224    1.3420 H   0  0  0  0  0  0  0  0  0  0  0  0
   -6.4354    2.8079   -0.2878 H   0  0  0  0  0  0  0  0  0  0  0  0
   -6.2366   -2.0653   -1.2030 H   0  0  0  0  0  0  0  0  0  0  0  0
   -8.5073    1.5371   -0.6785 H   0  0  0  0  0  0  0  0  0  0  0  0
   -8.4116   -0.8978   -1.1423 H   0  0  0  0  0  0  0  0  0  0  0  0
   -1.1039   -0.9141    1.3512 H   0  0  0  0  0  0  0  0  0  0  0  0
   -2.9136   -4.3258   -0.5570 H   0  0  0  0  0  0  0  0  0  0  0  0
   -0.7160   -5.4506   -0.6224 H   0  0  0  0  0  0  0  0  0  0  0  0
    1.2583   -4.3725    0.2623 H   0  0  0  0  0  0  0  0  0  0  0  0
    3.3195   -1.9909    1.7562 H   0  0  0  0  0  0  0  0  0  0  0  0
    2.8528   -2.8147    0.2731 H   0  0  0  0  0  0  0  0  0  0  0  0
    2.5234   -3.5544    1.9025 H   0  0  0  0  0  0  0  0  0  0  0  0
  1 17  1  0  0  0  0
  2 14  1  0  0  0  0
  2 19  1  0  0  0  0
  3 31  1  0  0  0  0
  3 34  1  0  0  0  0
  4  6  1  0  0  0  0
  4  7  1  0  0  0  0
  4 10  1  0  0  0  0
  5  8  1  0  0  0  0
  5  9  1  0  0  0  0
  5 12  1  0  0  0  0
  6  8  1  0  0  0  0
  6 35  1  0  0  0  0
  6 36  1  0  0  0  0
  7  9  1  0  0  0  0
  7 37  1  0  0  0  0
  7 38  1  0  0  0  0
  8 39  1  0  0  0  0
  8 40  1  0  0  0  0
  9 41  1  0  0  0  0
  9 42  1  0  0  0  0
 10 11  1  0  0  0  0
 10 43  1  0  0  0  0
 10 44  1  0  0  0  0
 11 13  1  0  0  0  0
 11 45  1  0  0  0  0
 11 46  1  0  0  0  0
 12 15  2  0  0  0  0
 12 16  1  0  0  0  0
 13 14  1  0  0  0  0
 13 47  1  0  0  0  0
 13 48  1  0  0  0  0
 14 49  1  0  0  0  0
 14 50  1  0  0  0  0
 15 17  1  0  0  0  0
 15 51  1  0  0  0  0
 16 18  2  0  0  0  0
 16 52  1  0  0  0  0
 17 20  2  0  0  0  0
 18 20  1  0  0  0  0
 18 53  1  0  0  0  0
 19 21  1  0  0  0  0
 19 24  2  0  0  0  0
 20 54  1  0  0  0  0
 21 22  1  0  0  0  0
 21 25  2  0  0  0  0
 22 23  1  0  0  0  0
 22 55  1  0  0  0  0
 22 56  1  0  0  0  0
 23 26  1  0  0  0  0
 23 57  1  0  0  0  0
 23 58  1  0  0  0  0
 24 27  1  0  0  0  0
 24 59  1  0  0  0  0
 25 28  1  0  0  0  0
 25 60  1  0  0  0  0
 26 29  2  0  0  0  0
 26 30  1  0  0  0  0
 27 28  2  0  0  0  0
 27 61  1  0  0  0  0
 28 62  1  0  0  0  0
 29 31  1  0  0  0  0
 29 63  1  0  0  0  0
 30 32  2  0  0  0  0
 30 64  1  0  0  0  0
 31 33  2  0  0  0  0
 32 33  1  0  0  0  0
 32 65  1  0  0  0  0
 33 66  1  0  0  0  0
 34 67  1  0  0  0  0
 34 68  1  0  0  0  0
 34 69  1  0  0  0  0
M  END
> <PUBCHEM_COMPOUND_CID>
25158433

> <PUBCHEM_CONFORMER_RMSD>
1.6

> <PUBCHEM_CONFORMER_DIVERSEORDER>
1
98
118
39
14
139
141
108
45
138
104
67
61
24
126
80
77
56
12
124
34
116
102
78
47
97
53
107
83
42
73
44
143
81
112
48
92
3
26
6
129
140
17
119
128
57
99
87
20
106
111
37
10
72
18
15
115
41
130
95
58
8
43
65
134
117
113
31
16
110
25
91
29
142
103
50
19
5
66
127
68
93
105
33
135
74
64
40
88
23
21
22
38
52
132
28
84
32
133
82
136
137
79
36
123
109
94
89
70
86
7
101
30
35
59
55
120
49
11
75
2
54
27
114
131
85
46
121
51
9
76
96
13
71
4
100
60
63
122
90
62
125
69

> <PUBCHEM_MMFF94_PARTIAL_CHARGES>
44
1 -0.18
10 0.27
12 0.1
14 0.28
15 -0.15
16 -0.15
17 0.18
18 -0.15
19 0.08
2 -0.36
20 -0.15
21 -0.14
22 0.14
23 0.14
24 -0.15
25 -0.15
26 -0.14
27 -0.15
28 -0.15
29 -0.15
3 -0.36
30 -0.15
31 0.08
32 -0.15
33 -0.15
34 0.28
4 -0.81
5 -0.84
51 0.15
52 0.15
53 0.15
54 0.15
59 0.15
6 0.27
60 0.15
61 0.15
62 0.15
63 0.15
64 0.15
65 0.15
66 0.15
7 0.27
8 0.37
9 0.37

> <PUBCHEM_EFFECTIVE_ROTOR_COUNT>
12.2

> <PUBCHEM_PHARMACOPHORE_FEATURES>
8
1 2 acceptor
1 3 acceptor
1 4 cation
1 5 cation
6 12 15 16 17 18 20 rings
6 19 21 24 25 27 28 rings
6 26 29 30 31 32 33 rings
6 4 5 6 7 8 9 rings

> <PUBCHEM_HEAVY_ATOM_COUNT>
34

> <PUBCHEM_ATOM_DEF_STEREO_COUNT>
0

> <PUBCHEM_ATOM_UDEF_STEREO_COUNT>
0

> <PUBCHEM_BOND_DEF_STEREO_COUNT>
0

> <PUBCHEM_BOND_UDEF_STEREO_COUNT>
0

> <PUBCHEM_ISOTOPIC_ATOM_COUNT>
0

> <PUBCHEM_COMPONENT_COUNT>
1

> <PUBCHEM_CACTVS_TAUTO_COUNT>
1

> <PUBCHEM_CONFORMER_ID>
017FE32100000001

> <PUBCHEM_MMFF94_ENERGY>
107.2991

> <PUBCHEM_FEATURE_SELFOVERLAP>
40.6

> <PUBCHEM_SHAPE_FINGERPRINT>
10483366 6 18411417306301446635
10864689 126 18341324553187112569
11135926 11 18337388232898479965
11513181 2 18057047899909674902
12202916 173 17988922279695284542
13165054 235 18192693575681132807
13692114 37 18343013385936176502
13751561 76 17560226042554435120
14289585 56 17240757376641629740
14394314 77 18340488851336286793
14840074 17 17458060478183116301
14931854 50 18411414004110049021
15001296 14 18189884473917280897
15052358 14 18411984701788884866
15183329 4 18408889538049397148
15297060 5 18272653411585632275
15351339 4 18339640031994455011
15781502 589 18129662993946559686
15790856 291 18267873950393920486
15890870 6 18408038503360262679
15927050 60 17839476487360224737
17627616 140 18266459806846720659
19311894 1 18269838795026159099
19958102 18 18408316709370969676
21133410 230 17897186791535380099
21814621 53 15625662679196386392
22440779 20 16376383109235161994
23559900 14 18270676609907118793
24893992 56 18337952394338432495
3383291 50 18343863337835155691
42767 46 18335414668817017505
437795 70 18201447990561758644
508180 173 18341895241922392523
5085150 59 18342455928908381822
5265222 85 18189058745175129597
59755656 215 18413109458986208510
6138700 20 18343299284781910805
6371380 46 18411979195492819774
6376802 137 17203615877839061568

> <PUBCHEM_SHAPE_MULTIPOLES>
679.87
20.5
4.93
1.55
6.98
3.55
0.41
-3.82
9.71
-2.87
-1.95
2.03
-0.39
-1.16

> <PUBCHEM_SHAPE_SELFOVERLAP>
1424.319

> <PUBCHEM_SHAPE_VOLUME>
384.9

> <PUBCHEM_COORDINATE_TYPE>
2
5
10

$$$$