25157253
  -OEChem-03242010103D

 69 72  0     0  0  0  0  0  0999 V2000
    8.5227   -0.7843   -1.5048 F   0  0  0  0  0  0  0  0  0  0  0  0
   -3.9887    1.8029   -0.3854 O   0  0  0  0  0  0  0  0  0  0  0  0
    1.2331   -1.9113    1.5575 O   0  0  0  0  0  0  0  0  0  0  0  0
    1.0464    2.1513    0.8757 N   0  0  0  0  0  0  0  0  0  0  0  0
    3.6328    1.3063    0.0061 N   0  0  0  0  0  0  0  0  0  0  0  0
    2.2565    2.7537    1.4481 C   0  0  0  0  0  0  0  0  0  0  0  0
    1.2794    1.8035   -0.5315 C   0  0  0  0  0  0  0  0  0  0  0  0
    3.4394    1.7846    1.3784 C   0  0  0  0  0  0  0  0  0  0  0  0
    2.4289    0.8022   -0.6665 C   0  0  0  0  0  0  0  0  0  0  0  0
   -0.0886    3.0656    0.9968 C   0  0  0  0  0  0  0  0  0  0  0  0
   -1.4035    2.3021    0.8492 C   0  0  0  0  0  0  0  0  0  0  0  0
    4.8702    0.7767   -0.3764 C   0  0  0  0  0  0  0  0  0  0  0  0
   -2.6032    3.2410    0.9637 C   0  0  0  0  0  0  0  0  0  0  0  0
   -3.9209    2.4844    0.8601 C   0  0  0  0  0  0  0  0  0  0  0  0
    5.6721    0.1290    0.5632 C   0  0  0  0  0  0  0  0  0  0  0  0
    5.3020    0.8973   -1.6973 C   0  0  0  0  0  0  0  0  0  0  0  0
    6.9058   -0.3983    0.1819 C   0  0  0  0  0  0  0  0  0  0  0  0
    6.5358    0.3701   -2.0785 C   0  0  0  0  0  0  0  0  0  0  0  0
   -5.1309    1.0887   -0.6379 C   0  0  0  0  0  0  0  0  0  0  0  0
    7.3377   -0.2778   -1.1389 C   0  0  0  0  0  0  0  0  0  0  0  0
   -5.0763   -0.2862   -0.8668 C   0  0  0  0  0  0  0  0  0  0  0  0
   -3.7724   -1.0128   -0.8407 C   0  0  0  0  0  0  0  0  0  0  0  0
   -3.5398   -1.8368    0.4405 C   0  0  0  0  0  0  0  0  0  0  0  0
   -6.3576    1.7521   -0.6651 C   0  0  0  0  0  0  0  0  0  0  0  0
   -6.2485   -0.9976   -1.1231 C   0  0  0  0  0  0  0  0  0  0  0  0
   -2.2019   -2.5349    0.4641 C   0  0  0  0  0  0  0  0  0  0  0  0
   -7.5296    1.0406   -0.9214 C   0  0  0  0  0  0  0  0  0  0  0  0
   -7.4752   -0.3342   -1.1504 C   0  0  0  0  0  0  0  0  0  0  0  0
   -1.0889   -1.8922    1.0061 C   0  0  0  0  0  0  0  0  0  0  0  0
   -2.0786   -3.8232   -0.0562 C   0  0  0  0  0  0  0  0  0  0  0  0
    0.1473   -2.5378    1.0281 C   0  0  0  0  0  0  0  0  0  0  0  0
   -0.8424   -4.4689   -0.0344 C   0  0  0  0  0  0  0  0  0  0  0  0
    0.2705   -3.8261    0.5078 C   0  0  0  0  0  0  0  0  0  0  0  0
    2.4661   -2.6295    1.5484 C   0  0  0  0  0  0  0  0  0  0  0  0
    2.0902    3.0085    2.5019 H   0  0  0  0  0  0  0  0  0  0  0  0
    2.5107    3.6842    0.9226 H   0  0  0  0  0  0  0  0  0  0  0  0
    1.5096    2.7019   -1.1203 H   0  0  0  0  0  0  0  0  0  0  0  0
    0.3973    1.3384   -0.9826 H   0  0  0  0  0  0  0  0  0  0  0  0
    4.3323    2.3129    1.7354 H   0  0  0  0  0  0  0  0  0  0  0  0
    3.2566    0.9340    2.0478 H   0  0  0  0  0  0  0  0  0  0  0  0
    2.1464   -0.1615   -0.2296 H   0  0  0  0  0  0  0  0  0  0  0  0
    2.6039    0.6298   -1.7347 H   0  0  0  0  0  0  0  0  0  0  0  0
   -0.0909    3.5258    1.9938 H   0  0  0  0  0  0  0  0  0  0  0  0
   -0.0258    3.8874    0.2719 H   0  0  0  0  0  0  0  0  0  0  0  0
   -1.4701    1.5334    1.6291 H   0  0  0  0  0  0  0  0  0  0  0  0
   -1.4529    1.7867   -0.1148 H   0  0  0  0  0  0  0  0  0  0  0  0
   -2.5497    3.9829    0.1575 H   0  0  0  0  0  0  0  0  0  0  0  0
   -2.5702    3.7820    1.9162 H   0  0  0  0  0  0  0  0  0  0  0  0
   -4.0031    1.7588    1.6787 H   0  0  0  0  0  0  0  0  0  0  0  0
   -4.7389    3.2071    0.9545 H   0  0  0  0  0  0  0  0  0  0  0  0
    5.3616    0.0037    1.5965 H   0  0  0  0  0  0  0  0  0  0  0  0
    4.6986    1.4111   -2.4411 H   0  0  0  0  0  0  0  0  0  0  0  0
    7.5293   -0.9058    0.9121 H   0  0  0  0  0  0  0  0  0  0  0  0
    6.8740    0.4664   -3.1060 H   0  0  0  0  0  0  0  0  0  0  0  0
   -3.7264   -1.6790   -1.7138 H   0  0  0  0  0  0  0  0  0  0  0  0
   -2.9350   -0.3185   -0.9857 H   0  0  0  0  0  0  0  0  0  0  0  0
   -4.3373   -2.5817    0.5620 H   0  0  0  0  0  0  0  0  0  0  0  0
   -3.6203   -1.1831    1.3197 H   0  0  0  0  0  0  0  0  0  0  0  0
   -6.4200    2.8252   -0.5086 H   0  0  0  0  0  0  0  0  0  0  0  0
   -6.2198   -2.0689   -1.3041 H   0  0  0  0  0  0  0  0  0  0  0  0
   -8.4844    1.5577   -0.9472 H   0  0  0  0  0  0  0  0  0  0  0  0
   -8.3877   -0.8877   -1.3513 H   0  0  0  0  0  0  0  0  0  0  0  0
   -1.1781   -0.8888    1.4130 H   0  0  0  0  0  0  0  0  0  0  0  0
   -2.9382   -4.3332   -0.4830 H   0  0  0  0  0  0  0  0  0  0  0  0
   -0.7474   -5.4719   -0.4405 H   0  0  0  0  0  0  0  0  0  0  0  0
    1.1999   -4.3850    0.4924 H   0  0  0  0  0  0  0  0  0  0  0  0
    3.2199   -1.9817    2.0075 H   0  0  0  0  0  0  0  0  0  0  0  0
    2.8032   -2.8366    0.5270 H   0  0  0  0  0  0  0  0  0  0  0  0
    2.4086   -3.5365    2.1595 H   0  0  0  0  0  0  0  0  0  0  0  0
  1 20  1  0  0  0  0
  2 14  1  0  0  0  0
  2 19  1  0  0  0  0
  3 31  1  0  0  0  0
  3 34  1  0  0  0  0
  4  6  1  0  0  0  0
  4  7  1  0  0  0  0
  4 10  1  0  0  0  0
  5  8  1  0  0  0  0
  5  9  1  0  0  0  0
  5 12  1  0  0  0  0
  6  8  1  0  0  0  0
  6 35  1  0  0  0  0
  6 36  1  0  0  0  0
  7  9  1  0  0  0  0
  7 37  1  0  0  0  0
  7 38  1  0  0  0  0
  8 39  1  0  0  0  0
  8 40  1  0  0  0  0
  9 41  1  0  0  0  0
  9 42  1  0  0  0  0
 10 11  1  0  0  0  0
 10 43  1  0  0  0  0
 10 44  1  0  0  0  0
 11 13  1  0  0  0  0
 11 45  1  0  0  0  0
 11 46  1  0  0  0  0
 12 15  2  0  0  0  0
 12 16  1  0  0  0  0
 13 14  1  0  0  0  0
 13 47  1  0  0  0  0
 13 48  1  0  0  0  0
 14 49  1  0  0  0  0
 14 50  1  0  0  0  0
 15 17  1  0  0  0  0
 15 51  1  0  0  0  0
 16 18  2  0  0  0  0
 16 52  1  0  0  0  0
 17 20  2  0  0  0  0
 17 53  1  0  0  0  0
 18 20  1  0  0  0  0
 18 54  1  0  0  0  0
 19 21  1  0  0  0  0
 19 24  2  0  0  0  0
 21 22  1  0  0  0  0
 21 25  2  0  0  0  0
 22 23  1  0  0  0  0
 22 55  1  0  0  0  0
 22 56  1  0  0  0  0
 23 26  1  0  0  0  0
 23 57  1  0  0  0  0
 23 58  1  0  0  0  0
 24 27  1  0  0  0  0
 24 59  1  0  0  0  0
 25 28  1  0  0  0  0
 25 60  1  0  0  0  0
 26 29  2  0  0  0  0
 26 30  1  0  0  0  0
 27 28  2  0  0  0  0
 27 61  1  0  0  0  0
 28 62  1  0  0  0  0
 29 31  1  0  0  0  0
 29 63  1  0  0  0  0
 30 32  2  0  0  0  0
 30 64  1  0  0  0  0
 31 33  2  0  0  0  0
 32 33  1  0  0  0  0
 32 65  1  0  0  0  0
 33 66  1  0  0  0  0
 34 67  1  0  0  0  0
 34 68  1  0  0  0  0
 34 69  1  0  0  0  0
M  END
> <PUBCHEM_COMPOUND_CID>
25157253

> <PUBCHEM_CONFORMER_RMSD>
1.6

> <PUBCHEM_CONFORMER_DIVERSEORDER>
1
18
42
95
114
103
107
35
120
138
88
80
71
68
70
10
124
44
27
108
111
99
67
113
134
4
22
40
131
90
127
117
37
123
77
140
121
116
69
19
100
135
64
129
109
118
28
31
104
78
36
136
65
55
66
84
86
115
8
29
81
63
26
92
46
130
47
2
73
126
112
13
97
74
122
32
76
60
7
82
59
85
61
3
51
101
6
110
128
132
91
20
43
34
53
93
48
50
89
105
57
25
45
17
83
119
23
9
11
49
38
79
125
41
15
133
16
54
106
56
75
98
21
94
24
39
139
96
33
5
52
87
14
58
62
141
102
137
12
30
72

> <PUBCHEM_MMFF94_PARTIAL_CHARGES>
44
1 -0.19
10 0.27
12 0.1
14 0.28
15 -0.15
16 -0.15
17 -0.15
18 -0.15
19 0.08
2 -0.36
20 0.19
21 -0.14
22 0.14
23 0.14
24 -0.15
25 -0.15
26 -0.14
27 -0.15
28 -0.15
29 -0.15
3 -0.36
30 -0.15
31 0.08
32 -0.15
33 -0.15
34 0.28
4 -0.81
5 -0.84
51 0.15
52 0.15
53 0.15
54 0.15
59 0.15
6 0.27
60 0.15
61 0.15
62 0.15
63 0.15
64 0.15
65 0.15
66 0.15
7 0.27
8 0.37
9 0.37

> <PUBCHEM_EFFECTIVE_ROTOR_COUNT>
12.2

> <PUBCHEM_PHARMACOPHORE_FEATURES>
8
1 2 acceptor
1 3 acceptor
1 4 cation
1 5 cation
6 12 15 16 17 18 20 rings
6 19 21 24 25 27 28 rings
6 26 29 30 31 32 33 rings
6 4 5 6 7 8 9 rings

> <PUBCHEM_HEAVY_ATOM_COUNT>
34

> <PUBCHEM_ATOM_DEF_STEREO_COUNT>
0

> <PUBCHEM_ATOM_UDEF_STEREO_COUNT>
0

> <PUBCHEM_BOND_DEF_STEREO_COUNT>
0

> <PUBCHEM_BOND_UDEF_STEREO_COUNT>
0

> <PUBCHEM_ISOTOPIC_ATOM_COUNT>
0

> <PUBCHEM_COMPONENT_COUNT>
1

> <PUBCHEM_CACTVS_TAUTO_COUNT>
1

> <PUBCHEM_CONFORMER_ID>
017FDE8500000001

> <PUBCHEM_MMFF94_ENERGY>
106.6491

> <PUBCHEM_FEATURE_SELFOVERLAP>
40.6

> <PUBCHEM_SHAPE_FINGERPRINT>
10190206 1 18412271609841456112
10483366 6 18411418401528734514
10864689 126 18341324548834083977
11135926 11 18337105662768405885
11513181 2 18128820728936285582
12202916 173 18060699498400102382
14279260 333 18271241626208730102
14394314 77 18339923711039221721
14840074 17 17385437726541601621
14931854 50 18410847755584795085
15001296 14 18189600799954250977
15052358 14 18411702123084758978
15183329 4 18335140895112125412
15351339 4 18339074878722823907
15790856 291 18339084920431001014
15890870 6 18335417959384737703
15927050 60 17839475387885481272
17627616 140 18266176128525432955
19311894 1 18269557315707021435
21133410 230 17824001089998485987
22440779 20 16375537580435105506
22899556 105 18126820860337866535
23559900 14 18269554012687571992
24893992 56 18337386145897574687
3383291 50 18343018921494964923
42767 46 18335132098760841793
437795 70 18272939336137710094
508180 173 18341331192436237947
5085150 59 18341890779915880550
5265222 85 18187651369885193053
59755656 215 18412825780728237166
6138700 20 18343579655946751701
6371380 46 18411414046500351110
6376802 137 17131840858352775544

> <PUBCHEM_SHAPE_MULTIPOLES>
670.73
20.08
4.94
1.58
9.36
3.62
0.19
-4.47
13.28
-3.05
-2.22
1.6
-0.22
-0.21

> <PUBCHEM_SHAPE_SELFOVERLAP>
1416.299

> <PUBCHEM_SHAPE_VOLUME>
377.7

> <PUBCHEM_COORDINATE_TYPE>
2
5
10

$$$$