127040367
  -OEChem-03242010103D

 59 62  0     0  0  0  0  0  0999 V2000
   -3.3646    0.5878    0.9001 O   0  0  0  0  0  0  0  0  0  0  0  0
   -2.2240    3.7151    0.5971 O   0  0  0  0  0  0  0  0  0  0  0  0
   -6.5555   -1.0480   -2.3640 O   0  0  0  0  0  0  0  0  0  0  0  0
   -5.0076    1.0540   -2.8027 O   0  0  0  0  0  0  0  0  0  0  0  0
   -6.0680   -3.2021    1.8406 O   0  0  0  0  0  0  0  0  0  0  0  0
    9.5141   -1.7457   -2.0460 O   0  5  0  0  0  0  0  0  0  0  0  0
   10.3153   -0.5869   -0.3623 O   0  0  0  0  0  0  0  0  0  0  0  0
    2.0695    1.1983    0.9311 N   0  0  0  0  0  0  0  0  0  0  0  0
   -0.6936    1.9794    0.8408 N   0  0  0  0  0  0  0  0  0  0  0  0
    9.3505   -1.0807   -0.9945 N   0  3  0  0  0  0  0  0  0  0  0  0
    1.0954    0.3868    0.1899 C   0  0  0  0  0  0  0  0  0  0  0  0
    1.7001    2.6186    0.8646 C   0  0  0  0  0  0  0  0  0  0  0  0
   -0.3176    0.5626    0.7522 C   0  0  0  0  0  0  0  0  0  0  0  0
    0.3133    2.8392    1.4644 C   0  0  0  0  0  0  0  0  0  0  0  0
    3.4174    0.9933    0.4021 C   0  0  0  0  0  0  0  0  0  0  0  0
    4.0441   -0.2772    0.9775 C   0  0  0  0  0  0  0  0  0  0  0  0
   -1.9349    2.5201    0.5132 C   0  0  0  0  0  0  0  0  0  0  0  0
    5.4435   -0.4889    0.4567 C   0  0  0  0  0  0  0  0  0  0  0  0
   -2.9834    1.5948    0.0387 C   0  0  0  0  0  0  0  0  0  0  0  0
    6.5314    0.0506    1.1429 C   0  0  0  0  0  0  0  0  0  0  0  0
    5.6501   -1.2242   -0.7105 C   0  0  0  0  0  0  0  0  0  0  0  0
   -3.4808    1.8039   -1.1863 C   0  0  0  0  0  0  0  0  0  0  0  0
   -4.3381   -0.2829    0.4770 C   0  0  0  0  0  0  0  0  0  0  0  0
   -4.9460   -0.1856   -0.7753 C   0  0  0  0  0  0  0  0  0  0  0  0
   -4.5310    0.8939   -1.6875 C   0  0  0  0  0  0  0  0  0  0  0  0
    7.8260   -0.1453    0.6621 C   0  0  0  0  0  0  0  0  0  0  0  0
    6.9446   -1.4201   -1.1915 C   0  0  0  0  0  0  0  0  0  0  0  0
    8.0326   -0.8807   -0.5051 C   0  0  0  0  0  0  0  0  0  0  0  0
   -5.9320   -1.0996   -1.1538 C   0  0  0  0  0  0  0  0  0  0  0  0
   -4.7141   -1.2967    1.3583 C   0  0  0  0  0  0  0  0  0  0  0  0
   -5.6987   -2.2112    0.9829 C   0  0  0  0  0  0  0  0  0  0  0  0
   -6.3060   -2.1126   -0.2700 C   0  0  0  0  0  0  0  0  0  0  0  0
   -7.7446   -0.2646   -2.4472 C   0  0  0  0  0  0  0  0  0  0  0  0
   -5.4075   -3.2455    3.1045 C   0  0  0  0  0  0  0  0  0  0  0  0
    1.3454   -0.6779    0.2482 H   0  0  0  0  0  0  0  0  0  0  0  0
    2.4163    3.2239    1.4333 H   0  0  0  0  0  0  0  0  0  0  0  0
    1.7159    2.9747   -0.1741 H   0  0  0  0  0  0  0  0  0  0  0  0
    1.0939    0.6635   -0.8733 H   0  0  0  0  0  0  0  0  0  0  0  0
    0.3173    2.6012    2.5355 H   0  0  0  0  0  0  0  0  0  0  0  0
   -1.0156    0.0085    0.1201 H   0  0  0  0  0  0  0  0  0  0  0  0
   -0.3834    0.1489    1.7658 H   0  0  0  0  0  0  0  0  0  0  0  0
    0.0349    3.8939    1.3695 H   0  0  0  0  0  0  0  0  0  0  0  0
    3.4251    0.9819   -0.6962 H   0  0  0  0  0  0  0  0  0  0  0  0
    4.0627    1.8327    0.6967 H   0  0  0  0  0  0  0  0  0  0  0  0
    3.4451   -1.1636    0.7370 H   0  0  0  0  0  0  0  0  0  0  0  0
    4.0689   -0.2249    2.0742 H   0  0  0  0  0  0  0  0  0  0  0  0
    6.3825    0.6268    2.0523 H   0  0  0  0  0  0  0  0  0  0  0  0
    4.8099   -1.6474   -1.2546 H   0  0  0  0  0  0  0  0  0  0  0  0
   -3.1495    2.6080   -1.8332 H   0  0  0  0  0  0  0  0  0  0  0  0
    8.6495    0.2899    1.2226 H   0  0  0  0  0  0  0  0  0  0  0  0
    7.0676   -1.9979   -2.1040 H   0  0  0  0  0  0  0  0  0  0  0  0
   -4.2071   -1.3228    2.3171 H   0  0  0  0  0  0  0  0  0  0  0  0
   -7.0721   -2.8296   -0.5559 H   0  0  0  0  0  0  0  0  0  0  0  0
   -8.0084   -0.1531   -3.5024 H   0  0  0  0  0  0  0  0  0  0  0  0
   -7.6010    0.7306   -2.0141 H   0  0  0  0  0  0  0  0  0  0  0  0
   -8.5644   -0.7766   -1.9339 H   0  0  0  0  0  0  0  0  0  0  0  0
   -5.8239   -4.0940    3.6574 H   0  0  0  0  0  0  0  0  0  0  0  0
   -5.6123   -2.3473    3.6970 H   0  0  0  0  0  0  0  0  0  0  0  0
   -4.3344   -3.4338    2.9919 H   0  0  0  0  0  0  0  0  0  0  0  0
  1 19  1  0  0  0  0
  1 23  1  0  0  0  0
  2 17  2  0  0  0  0
  3 29  1  0  0  0  0
  3 33  1  0  0  0  0
  4 25  2  0  0  0  0
  5 31  1  0  0  0  0
  5 34  1  0  0  0  0
  6 10  1  0  0  0  0
  7 10  2  0  0  0  0
  8 11  1  0  0  0  0
  8 12  1  0  0  0  0
  8 15  1  0  0  0  0
  9 13  1  0  0  0  0
  9 14  1  0  0  0  0
  9 17  1  0  0  0  0
 10 28  1  0  0  0  0
 11 13  1  0  0  0  0
 11 35  1  0  0  0  0
 11 38  1  0  0  0  0
 12 14  1  0  0  0  0
 12 36  1  0  0  0  0
 12 37  1  0  0  0  0
 13 40  1  0  0  0  0
 13 41  1  0  0  0  0
 14 39  1  0  0  0  0
 14 42  1  0  0  0  0
 15 16  1  0  0  0  0
 15 43  1  0  0  0  0
 15 44  1  0  0  0  0
 16 18  1  0  0  0  0
 16 45  1  0  0  0  0
 16 46  1  0  0  0  0
 17 19  1  0  0  0  0
 18 20  2  0  0  0  0
 18 21  1  0  0  0  0
 19 22  2  0  0  0  0
 20 26  1  0  0  0  0
 20 47  1  0  0  0  0
 21 27  2  0  0  0  0
 21 48  1  0  0  0  0
 22 25  1  0  0  0  0
 22 49  1  0  0  0  0
 23 24  2  0  0  0  0
 23 30  1  0  0  0  0
 24 25  1  0  0  0  0
 24 29  1  0  0  0  0
 26 28  2  0  0  0  0
 26 50  1  0  0  0  0
 27 28  1  0  0  0  0
 27 51  1  0  0  0  0
 29 32  2  0  0  0  0
 30 31  2  0  0  0  0
 30 52  1  0  0  0  0
 31 32  1  0  0  0  0
 32 53  1  0  0  0  0
 33 54  1  0  0  0  0
 33 55  1  0  0  0  0
 33 56  1  0  0  0  0
 34 57  1  0  0  0  0
 34 58  1  0  0  0  0
 34 59  1  0  0  0  0
M  CHG  2   6  -1  10   1
M  END
> <PUBCHEM_COMPOUND_CID>
127040367

> <PUBCHEM_CONFORMER_RMSD>
1

> <PUBCHEM_CONFORMER_DIVERSEORDER>
1
81
124
86
66
131
126
141
134
55
50
101
102
140
135
20
104
114
30
60
27
97
148
29
150
127
144
59
105
137
82
65
64
145
16
103
26
147
22
113
15
98
83
110
38
57
45
121
94
112
116
80
11
21
23
108
2
146
47
149
132
90
68
92
56
87
52
24
138
123
41
129
143
18
61
44
115
122
14
33
32
8
40
152
54
119
58
77
88
62
118
100
76
128
25
133
109
106
69
28
34
107
51
142
73
85
125
130
37
136
84
19
117
49
48
10
43
72
13
46
36
67
111
17
5
93
75
78
139
53
96
89
79
71
74
120
42
3
7
4
99
70
12
95
35
6
91
9
63
31
39
151

> <PUBCHEM_MMFF94_PARTIAL_CHARGES>
41
1 -0.16
10 0.91
11 0.27
12 0.27
13 0.3
14 0.3
15 0.27
16 0.14
17 0.62
18 -0.14
19 0.09
2 -0.57
20 -0.15
21 -0.15
22 -0.14
23 0.08
24 0.09
25 0.47
26 -0.15
27 -0.15
28 0.13
29 0.08
3 -0.36
30 -0.15
31 0.08
32 -0.15
33 0.28
34 0.28
4 -0.57
47 0.15
48 0.15
49 0.15
5 -0.36
50 0.15
51 0.15
52 0.15
53 0.15
6 -0.52
7 -0.52
8 -0.81
9 -0.66

> <PUBCHEM_EFFECTIVE_ROTOR_COUNT>
9.2

> <PUBCHEM_PHARMACOPHORE_FEATURES>
13
1 1 acceptor
1 2 acceptor
1 3 acceptor
1 4 acceptor
1 5 acceptor
1 6 acceptor
1 6 anion
1 7 acceptor
1 8 cation
6 1 19 22 23 24 25 rings
6 18 20 21 26 27 28 rings
6 23 24 29 30 31 32 rings
6 8 9 11 12 13 14 rings

> <PUBCHEM_HEAVY_ATOM_COUNT>
34

> <PUBCHEM_ATOM_DEF_STEREO_COUNT>
0

> <PUBCHEM_ATOM_UDEF_STEREO_COUNT>
0

> <PUBCHEM_BOND_DEF_STEREO_COUNT>
0

> <PUBCHEM_BOND_UDEF_STEREO_COUNT>
0

> <PUBCHEM_ISOTOPIC_ATOM_COUNT>
0

> <PUBCHEM_COMPONENT_COUNT>
1

> <PUBCHEM_CACTVS_TAUTO_COUNT>
2

> <PUBCHEM_CONFORMER_ID>
07927B6F00000001

> <PUBCHEM_MMFF94_ENERGY>
114.9442

> <PUBCHEM_FEATURE_SELFOVERLAP>
66.096

> <PUBCHEM_SHAPE_FINGERPRINT>
10369192 42 12035725376463768129
10462385 53 18337405850511755978
10533779 1 10879453655295394427
11477941 20 16660362575933681821
11578821 258 11459295470832522366
11621639 307 12902363743885052943
12106331 60 18343014459239884568
13553643 46 11169919412238927358
1361 87 18260543476801742475
13782708 43 18335700584789931801
14931854 50 18113893845219232474
14950920 106 14620215499426194521
150020 25 18260542347141051012
15064986 266 18334858321167833405
15131766 46 11675415437653364687
15183329 4 16950278495073851228
15392192 29 18409173195318335393
15461852 350 17603871096568302174
15510800 12 18411979195545658355
15979999 66 17894348887436232484
16067689 68 16128661855449466199
16096371 109 17342360123438836969
16991971 28 18342740724306151836
16992779 147 14619359006419112578
17686467 74 18410011053475840232
19246450 95 12391519654655401802
21033650 10 17023171696801782125
21133410 32 14057583326789098593
21196832 93 18115029718177234426
21307412 95 18261662784366477463
21796203 349 17774174533318249729
21867018 265 17385728014759950854
22288116 15 17603308158745428402
23559900 14 17896020205234237573
23576562 1 17168153385843901740
25025965 108 17915438550352535862
25269216 80 16009031722446784195
2747138 104 18201999928741526176
3383291 50 18343016718430320050
397638 5 14851885885998385508
42767 23 17458063772934631038
4330586 98 17459763702956430915
437795 150 17968101953487945243
4461854 278 17561088033795591974
44880568 143 18040711459651038924
484989 97 18261115226821341426
4938544 92 12319739163744835777
50009960 94 18049995594503218662
5047190 19 17749963252951989251
54039377 194 18131630097351619172
58083652 198 15051436207461058848
6289498 60 9871463193824957966
636775 8 18410866460473401738
999808 66 18202847651610214510

> <PUBCHEM_SHAPE_MULTIPOLES>
643.68
29.85
3.25
2.24
63.35
0.61
-0.5
-23.96
-14.03
-4.99
2.01
-4.08
-1.06
4.95

> <PUBCHEM_SHAPE_SELFOVERLAP>
1388.952

> <PUBCHEM_SHAPE_VOLUME>
354.3

> <PUBCHEM_COORDINATE_TYPE>
2
5
10

$$$$