25156133
  -OEChem-03242010103D

 66 69  0     0  0  0  0  0  0999 V2000
    9.7249   -0.0908    0.5726 F   0  0  0  0  0  0  0  0  0  0  0  0
   -3.0976    2.0749    0.4344 O   0  0  0  0  0  0  0  0  0  0  0  0
   -0.5187   -2.9783   -0.2525 O   0  0  0  0  0  0  0  0  0  0  0  0
    1.4473    0.6574   -0.4774 N   0  0  0  0  0  0  0  0  0  0  0  0
    4.2907    0.5161   -0.2446 N   0  0  0  0  0  0  0  0  0  0  0  0
    2.2230    1.8481   -0.1098 C   0  0  0  0  0  0  0  0  0  0  0  0
    2.2264   -0.1821   -1.3960 C   0  0  0  0  0  0  0  0  0  0  0  0
    3.5323    1.4601    0.5818 C   0  0  0  0  0  0  0  0  0  0  0  0
    3.5350   -0.6384   -0.7466 C   0  0  0  0  0  0  0  0  0  0  0  0
    0.1754    1.0420   -1.0881 C   0  0  0  0  0  0  0  0  0  0  0  0
   -0.8453    1.3916   -0.0100 C   0  0  0  0  0  0  0  0  0  0  0  0
    5.6661    0.3620   -0.0377 C   0  0  0  0  0  0  0  0  0  0  0  0
   -2.1884    1.7759   -0.6159 C   0  0  0  0  0  0  0  0  0  0  0  0
    6.2062    0.5565    1.2335 C   0  0  0  0  0  0  0  0  0  0  0  0
    6.4969    0.0144   -1.1030 C   0  0  0  0  0  0  0  0  0  0  0  0
    7.5772    0.4034    1.4395 C   0  0  0  0  0  0  0  0  0  0  0  0
    7.8679   -0.1385   -0.8968 C   0  0  0  0  0  0  0  0  0  0  0  0
   -4.4257    1.8419    0.1878 C   0  0  0  0  0  0  0  0  0  0  0  0
   -5.1506    0.9461    0.9737 C   0  0  0  0  0  0  0  0  0  0  0  0
   -4.4974    0.2206    2.1034 C   0  0  0  0  0  0  0  0  0  0  0  0
    8.4081    0.0559    0.3744 C   0  0  0  0  0  0  0  0  0  0  0  0
   -4.5543   -1.3141    1.9788 C   0  0  0  0  0  0  0  0  0  0  0  0
   -5.0516    2.5120   -0.8633 C   0  0  0  0  0  0  0  0  0  0  0  0
   -6.5012    0.7201    0.7082 C   0  0  0  0  0  0  0  0  0  0  0  0
   -3.8462   -1.8381    0.7532 C   0  0  0  0  0  0  0  0  0  0  0  0
   -6.4022    2.2860   -1.1287 C   0  0  0  0  0  0  0  0  0  0  0  0
   -7.1270    1.3901   -0.3430 C   0  0  0  0  0  0  0  0  0  0  0  0
   -2.4928   -2.1696    0.8176 C   0  0  0  0  0  0  0  0  0  0  0  0
   -4.5455   -1.9910   -0.4439 C   0  0  0  0  0  0  0  0  0  0  0  0
   -1.8389   -2.6542   -0.3152 C   0  0  0  0  0  0  0  0  0  0  0  0
   -3.8915   -2.4754   -1.5768 C   0  0  0  0  0  0  0  0  0  0  0  0
   -2.5383   -2.8070   -1.5123 C   0  0  0  0  0  0  0  0  0  0  0  0
    0.1356   -2.7977    1.0027 C   0  0  0  0  0  0  0  0  0  0  0  0
    1.6632    2.4870    0.5814 H   0  0  0  0  0  0  0  0  0  0  0  0
    2.4489    2.4529   -0.9987 H   0  0  0  0  0  0  0  0  0  0  0  0
    2.4448    0.3603   -2.3257 H   0  0  0  0  0  0  0  0  0  0  0  0
    1.6543   -1.0782   -1.6659 H   0  0  0  0  0  0  0  0  0  0  0  0
    4.1103    2.3768    0.7532 H   0  0  0  0  0  0  0  0  0  0  0  0
    3.3119    1.0090    1.5580 H   0  0  0  0  0  0  0  0  0  0  0  0
    3.3243   -1.3208    0.0872 H   0  0  0  0  0  0  0  0  0  0  0  0
    4.1047   -1.2058   -1.4913 H   0  0  0  0  0  0  0  0  0  0  0  0
    0.2970    1.8660   -1.8029 H   0  0  0  0  0  0  0  0  0  0  0  0
   -0.2364    0.1969   -1.6559 H   0  0  0  0  0  0  0  0  0  0  0  0
   -0.9857    0.5459    0.6746 H   0  0  0  0  0  0  0  0  0  0  0  0
   -0.5022    2.2235    0.6160 H   0  0  0  0  0  0  0  0  0  0  0  0
   -2.5631    0.9483   -1.2322 H   0  0  0  0  0  0  0  0  0  0  0  0
   -2.0760    2.6622   -1.2508 H   0  0  0  0  0  0  0  0  0  0  0  0
    5.5879    0.8137    2.0887 H   0  0  0  0  0  0  0  0  0  0  0  0
    6.0977   -0.1273   -2.1039 H   0  0  0  0  0  0  0  0  0  0  0  0
    7.9982    0.5516    2.4296 H   0  0  0  0  0  0  0  0  0  0  0  0
    8.5157   -0.4058   -1.7265 H   0  0  0  0  0  0  0  0  0  0  0  0
   -3.4500    0.5214    2.2250 H   0  0  0  0  0  0  0  0  0  0  0  0
   -4.9965    0.5170    3.0355 H   0  0  0  0  0  0  0  0  0  0  0  0
   -5.5919   -1.6710    1.9791 H   0  0  0  0  0  0  0  0  0  0  0  0
   -4.1007   -1.7578    2.8748 H   0  0  0  0  0  0  0  0  0  0  0  0
   -4.5024    3.2192   -1.4789 H   0  0  0  0  0  0  0  0  0  0  0  0
   -7.0856    0.0353    1.3166 H   0  0  0  0  0  0  0  0  0  0  0  0
   -6.8902    2.8093   -1.9457 H   0  0  0  0  0  0  0  0  0  0  0  0
   -8.1793    1.2165   -0.5479 H   0  0  0  0  0  0  0  0  0  0  0  0
   -1.9976   -2.0274    1.7723 H   0  0  0  0  0  0  0  0  0  0  0  0
   -5.6034   -1.7554   -0.5098 H   0  0  0  0  0  0  0  0  0  0  0  0
   -4.4369   -2.5977   -2.5080 H   0  0  0  0  0  0  0  0  0  0  0  0
   -2.0342   -3.1842   -2.3979 H   0  0  0  0  0  0  0  0  0  0  0  0
    1.1792   -3.1009    0.8688 H   0  0  0  0  0  0  0  0  0  0  0  0
   -0.2896   -3.4472    1.7754 H   0  0  0  0  0  0  0  0  0  0  0  0
    0.1468   -1.7451    1.3046 H   0  0  0  0  0  0  0  0  0  0  0  0
  1 21  1  0  0  0  0
  2 13  1  0  0  0  0
  2 18  1  0  0  0  0
  3 30  1  0  0  0  0
  3 33  1  0  0  0  0
  4  6  1  0  0  0  0
  4  7  1  0  0  0  0
  4 10  1  0  0  0  0
  5  8  1  0  0  0  0
  5  9  1  0  0  0  0
  5 12  1  0  0  0  0
  6  8  1  0  0  0  0
  6 34  1  0  0  0  0
  6 35  1  0  0  0  0
  7  9  1  0  0  0  0
  7 36  1  0  0  0  0
  7 37  1  0  0  0  0
  8 38  1  0  0  0  0
  8 39  1  0  0  0  0
  9 40  1  0  0  0  0
  9 41  1  0  0  0  0
 10 11  1  0  0  0  0
 10 42  1  0  0  0  0
 10 43  1  0  0  0  0
 11 13  1  0  0  0  0
 11 44  1  0  0  0  0
 11 45  1  0  0  0  0
 12 14  2  0  0  0  0
 12 15  1  0  0  0  0
 13 46  1  0  0  0  0
 13 47  1  0  0  0  0
 14 16  1  0  0  0  0
 14 48  1  0  0  0  0
 15 17  2  0  0  0  0
 15 49  1  0  0  0  0
 16 21  2  0  0  0  0
 16 50  1  0  0  0  0
 17 21  1  0  0  0  0
 17 51  1  0  0  0  0
 18 19  1  0  0  0  0
 18 23  2  0  0  0  0
 19 20  1  0  0  0  0
 19 24  2  0  0  0  0
 20 22  1  0  0  0  0
 20 52  1  0  0  0  0
 20 53  1  0  0  0  0
 22 25  1  0  0  0  0
 22 54  1  0  0  0  0
 22 55  1  0  0  0  0
 23 26  1  0  0  0  0
 23 56  1  0  0  0  0
 24 27  1  0  0  0  0
 24 57  1  0  0  0  0
 25 28  2  0  0  0  0
 25 29  1  0  0  0  0
 26 27  2  0  0  0  0
 26 58  1  0  0  0  0
 27 59  1  0  0  0  0
 28 30  1  0  0  0  0
 28 60  1  0  0  0  0
 29 31  2  0  0  0  0
 29 61  1  0  0  0  0
 30 32  2  0  0  0  0
 31 32  1  0  0  0  0
 31 62  1  0  0  0  0
 32 63  1  0  0  0  0
 33 64  1  0  0  0  0
 33 65  1  0  0  0  0
 33 66  1  0  0  0  0
M  END
> <PUBCHEM_COMPOUND_CID>
25156133

> <PUBCHEM_CONFORMER_RMSD>
1.6

> <PUBCHEM_CONFORMER_DIVERSEORDER>
2
1
50
27
4
6
34
35
52
31
21
56
30
41
68
63
49
9
36
18
55
67
65
62
71
29
73
43
60
25
53
47
15
54
64
32
3
33
11
16
22
48
57
59
28
70
8
13
39
37
45
19
23
38
14
40
72
69
51
17
58
20
44
61
42
26
66
7
5
10
24
12
46

> <PUBCHEM_MMFF94_PARTIAL_CHARGES>
44
1 -0.19
10 0.27
12 0.1
13 0.28
14 -0.15
15 -0.15
16 -0.15
17 -0.15
18 0.08
19 -0.14
2 -0.36
20 0.14
21 0.19
22 0.14
23 -0.15
24 -0.15
25 -0.14
26 -0.15
27 -0.15
28 -0.15
29 -0.15
3 -0.36
30 0.08
31 -0.15
32 -0.15
33 0.28
4 -0.81
48 0.15
49 0.15
5 -0.84
50 0.15
51 0.15
56 0.15
57 0.15
58 0.15
59 0.15
6 0.27
60 0.15
61 0.15
62 0.15
63 0.15
7 0.27
8 0.37
9 0.37

> <PUBCHEM_EFFECTIVE_ROTOR_COUNT>
11.2

> <PUBCHEM_PHARMACOPHORE_FEATURES>
8
1 2 acceptor
1 3 acceptor
1 4 cation
1 5 cation
6 12 14 15 16 17 21 rings
6 18 19 23 24 26 27 rings
6 25 28 29 30 31 32 rings
6 4 5 6 7 8 9 rings

> <PUBCHEM_HEAVY_ATOM_COUNT>
33

> <PUBCHEM_ATOM_DEF_STEREO_COUNT>
0

> <PUBCHEM_ATOM_UDEF_STEREO_COUNT>
0

> <PUBCHEM_BOND_DEF_STEREO_COUNT>
0

> <PUBCHEM_BOND_UDEF_STEREO_COUNT>
0

> <PUBCHEM_ISOTOPIC_ATOM_COUNT>
0

> <PUBCHEM_COMPONENT_COUNT>
1

> <PUBCHEM_CACTVS_TAUTO_COUNT>
1

> <PUBCHEM_CONFORMER_ID>
017FDA2500000002

> <PUBCHEM_MMFF94_ENERGY>
106.8388

> <PUBCHEM_FEATURE_SELFOVERLAP>
40.6

> <PUBCHEM_SHAPE_FINGERPRINT>
10076449 9 10665233639552850956
10462385 53 18059568057990658054
10670039 82 18411694418066527803
10674148 151 18259984890956898674
11135926 11 18114170913501585326
11136131 41 18116148870612152251
11315181 36 16630522934584714229
11524674 6 18343863312376192469
11973863 73 17894620432600703706
12422481 6 18187641358332334618
12838862 33 18337100190906029437
13111901 25 18188761761546254042
14394314 77 18335421240449724849
14747282 305 17605823734989058370
15021287 119 17603592945158145156
15183329 4 17385998508032605138
20721686 146 14563633412408273879
20721686 56 18261679190630144219
21033648 29 17560501998745699778
249057 3 18408602569414636204
3298306 158 18334296423586524501
3383291 50 18413113883715542475
397830 11 17987508377237355872
4403749 210 17916294108527806230
484985 159 17895190069560124731
5265222 85 18335147543495133644
6086070 43 17346307228790736306
6669772 16 18200035032152798903
9953998 17 18412542120061909840
999808 66 12396298166481214026

> <PUBCHEM_SHAPE_MULTIPOLES>
650.15
24.02
3.25
1.55
48.28
1.86
-0.28
-7.72
-3.49
-6.33
0.66
-0.84
0.41
0.67

> <PUBCHEM_SHAPE_SELFOVERLAP>
1380.072

> <PUBCHEM_SHAPE_VOLUME>
364.7

> <PUBCHEM_COORDINATE_TYPE>
2
5
10

$$$$