25156416
  -OEChem-03242010103D

 61 64  0     1  0  0  0  0  0999 V2000
    2.2999   -2.4962    0.6300 O   0  0  0  0  0  0  0  0  0  0  0  0
   -0.1707    2.3999   -1.9588 O   0  0  0  0  0  0  0  0  0  0  0  0
   -1.9079   -2.4049    0.2540 N   0  0  1  0  0  0  0  0  0  0  0  0
   -2.9913   -2.8603   -0.6258 C   0  0  0  0  0  0  0  0  0  0  0  0
   -2.4200   -1.4223    1.2254 C   0  0  0  0  0  0  0  0  0  0  0  0
   -3.4790   -1.6974   -1.4958 C   0  0  0  0  0  0  0  0  0  0  0  0
   -1.2938   -3.5356    0.9492 C   0  0  0  0  0  0  0  0  0  0  0  0
   -3.1922   -0.2928    0.5831 C   0  0  0  0  0  0  0  0  0  0  0  0
   -3.7374   -0.4423   -0.7036 C   0  0  0  0  0  0  0  0  0  0  0  0
    0.1298   -3.1874    1.3716 C   0  0  0  0  0  0  0  0  0  0  0  0
   -3.4228    0.8907    1.2975 C   0  0  0  0  0  0  0  0  0  0  0  0
   -4.4726    0.6064   -1.2711 C   0  0  0  0  0  0  0  0  0  0  0  0
    0.9952   -2.8236    0.1726 C   0  0  0  0  0  0  0  0  0  0  0  0
   -4.1641    1.9256    0.7277 C   0  0  0  0  0  0  0  0  0  0  0  0
   -4.6866    1.7845   -0.5559 C   0  0  0  0  0  0  0  0  0  0  0  0
    3.0114   -1.5971   -0.1215 C   0  0  0  0  0  0  0  0  0  0  0  0
    3.4478   -0.3932    0.4312 C   0  0  0  0  0  0  0  0  0  0  0  0
    3.1519   -0.0556    1.8551 C   0  0  0  0  0  0  0  0  0  0  0  0
    1.6983    0.3911    2.1040 C   0  0  0  0  0  0  0  0  0  0  0  0
    1.3009    1.6010    1.2940 C   0  0  0  0  0  0  0  0  0  0  0  0
    3.2971   -1.8973   -1.4534 C   0  0  0  0  0  0  0  0  0  0  0  0
    4.1698    0.5108   -0.3482 C   0  0  0  0  0  0  0  0  0  0  0  0
    4.0191   -0.9934   -2.2327 C   0  0  0  0  0  0  0  0  0  0  0  0
    4.4554    0.2107   -1.6800 C   0  0  0  0  0  0  0  0  0  0  0  0
    0.7424    1.4392    0.0260 C   0  0  0  0  0  0  0  0  0  0  0  0
    1.4919    2.8813    1.8137 C   0  0  0  0  0  0  0  0  0  0  0  0
    0.3749    2.5575   -0.7221 C   0  0  0  0  0  0  0  0  0  0  0  0
    1.1245    3.9998    1.0655 C   0  0  0  0  0  0  0  0  0  0  0  0
    0.5660    3.8378   -0.2023 C   0  0  0  0  0  0  0  0  0  0  0  0
   -0.3380    1.0631   -2.4292 C   0  0  0  0  0  0  0  0  0  0  0  0
   -3.8227   -3.2729   -0.0385 H   0  0  0  0  0  0  0  0  0  0  0  0
   -2.6417   -3.6547   -1.2968 H   0  0  0  0  0  0  0  0  0  0  0  0
   -1.5771   -0.9820    1.7701 H   0  0  0  0  0  0  0  0  0  0  0  0
   -3.0839   -1.9026    1.9568 H   0  0  0  0  0  0  0  0  0  0  0  0
   -4.3952   -2.0048   -2.0140 H   0  0  0  0  0  0  0  0  0  0  0  0
   -2.7237   -1.4700   -2.2588 H   0  0  0  0  0  0  0  0  0  0  0  0
   -1.8852   -3.8611    1.8142 H   0  0  0  0  0  0  0  0  0  0  0  0
   -1.2268   -4.4044    0.2808 H   0  0  0  0  0  0  0  0  0  0  0  0
    0.1417   -2.3912    2.1213 H   0  0  0  0  0  0  0  0  0  0  0  0
    0.5752   -4.0542    1.8770 H   0  0  0  0  0  0  0  0  0  0  0  0
   -3.0241    1.0122    2.3015 H   0  0  0  0  0  0  0  0  0  0  0  0
   -4.8811    0.5104   -2.2739 H   0  0  0  0  0  0  0  0  0  0  0  0
    0.5633   -1.9775   -0.3741 H   0  0  0  0  0  0  0  0  0  0  0  0
    1.0663   -3.6769   -0.5120 H   0  0  0  0  0  0  0  0  0  0  0  0
   -4.3338    2.8421    1.2853 H   0  0  0  0  0  0  0  0  0  0  0  0
   -5.2600    2.5926   -1.0006 H   0  0  0  0  0  0  0  0  0  0  0  0
    3.3749   -0.9233    2.4895 H   0  0  0  0  0  0  0  0  0  0  0  0
    3.8333    0.7337    2.2004 H   0  0  0  0  0  0  0  0  0  0  0  0
    1.5694    0.6092    3.1719 H   0  0  0  0  0  0  0  0  0  0  0  0
    0.9993   -0.4194    1.8872 H   0  0  0  0  0  0  0  0  0  0  0  0
    2.9707   -2.8345   -1.8957 H   0  0  0  0  0  0  0  0  0  0  0  0
    4.5154    1.4541    0.0664 H   0  0  0  0  0  0  0  0  0  0  0  0
    4.2427   -1.2275   -3.2693 H   0  0  0  0  0  0  0  0  0  0  0  0
    5.0169    0.9148   -2.2871 H   0  0  0  0  0  0  0  0  0  0  0  0
    0.6040    0.4244   -0.3278 H   0  0  0  0  0  0  0  0  0  0  0  0
    1.9279    3.0201    2.7993 H   0  0  0  0  0  0  0  0  0  0  0  0
    1.2737    4.9966    1.4698 H   0  0  0  0  0  0  0  0  0  0  0  0
    0.2816    4.7127   -0.7804 H   0  0  0  0  0  0  0  0  0  0  0  0
   -0.7956    1.1238   -3.4219 H   0  0  0  0  0  0  0  0  0  0  0  0
   -1.0251    0.4956   -1.7949 H   0  0  0  0  0  0  0  0  0  0  0  0
    0.6258    0.5569   -2.5504 H   0  0  0  0  0  0  0  0  0  0  0  0
  1 13  1  0  0  0  0
  1 16  1  0  0  0  0
  2 27  1  0  0  0  0
  2 30  1  0  0  0  0
  3  4  1  0  0  0  0
  3  5  1  0  0  0  0
  3  7  1  0  0  0  0
  4  6  1  0  0  0  0
  4 31  1  0  0  0  0
  4 32  1  0  0  0  0
  5  8  1  0  0  0  0
  5 33  1  0  0  0  0
  5 34  1  0  0  0  0
  6  9  1  0  0  0  0
  6 35  1  0  0  0  0
  6 36  1  0  0  0  0
  7 10  1  0  0  0  0
  7 37  1  0  0  0  0
  7 38  1  0  0  0  0
  8  9  1  0  0  0  0
  8 11  2  0  0  0  0
  9 12  2  0  0  0  0
 10 13  1  0  0  0  0
 10 39  1  0  0  0  0
 10 40  1  0  0  0  0
 11 14  1  0  0  0  0
 11 41  1  0  0  0  0
 12 15  1  0  0  0  0
 12 42  1  0  0  0  0
 13 43  1  0  0  0  0
 13 44  1  0  0  0  0
 14 15  2  0  0  0  0
 14 45  1  0  0  0  0
 15 46  1  0  0  0  0
 16 17  1  0  0  0  0
 16 21  2  0  0  0  0
 17 18  1  0  0  0  0
 17 22  2  0  0  0  0
 18 19  1  0  0  0  0
 18 47  1  0  0  0  0
 18 48  1  0  0  0  0
 19 20  1  0  0  0  0
 19 49  1  0  0  0  0
 19 50  1  0  0  0  0
 20 25  2  0  0  0  0
 20 26  1  0  0  0  0
 21 23  1  0  0  0  0
 21 51  1  0  0  0  0
 22 24  1  0  0  0  0
 22 52  1  0  0  0  0
 23 24  2  0  0  0  0
 23 53  1  0  0  0  0
 24 54  1  0  0  0  0
 25 27  1  0  0  0  0
 25 55  1  0  0  0  0
 26 28  2  0  0  0  0
 26 56  1  0  0  0  0
 27 29  2  0  0  0  0
 28 29  1  0  0  0  0
 28 57  1  0  0  0  0
 29 58  1  0  0  0  0
 30 59  1  0  0  0  0
 30 60  1  0  0  0  0
 30 61  1  0  0  0  0
M  END
> <PUBCHEM_COMPOUND_CID>
25156416

> <PUBCHEM_CONFORMER_RMSD>
1.6

> <PUBCHEM_CONFORMER_DIVERSEORDER>
1
62
6
87
63
117
34
77
49
102
109
99
47
41
5
40
112
81
94
75
54
100
61
50
39
26
18
68
20
115
96
80
83
88
28
110
73
101
25
43
89
103
114
116
84
76
51
118
91
72
31
67
104
107
85
66
113
70
35
7
45
105
29
79
82
48
64
93
36
4
14
15
46
56
121
59
32
52
23
24
74
42
98
108
86
30
71
65
95
55
58
9
122
120
12
19
10
60
53
17
97
119
22
38
69
57
111
90
92
11
37
13
33
78
21
8
16
44
2
106
3
27

> <PUBCHEM_MMFF94_PARTIAL_CHARGES>
41
1 -0.36
11 -0.15
12 -0.15
13 0.28
14 -0.15
15 -0.15
16 0.08
17 -0.14
18 0.14
19 0.14
2 -0.36
20 -0.14
21 -0.15
22 -0.15
23 -0.15
24 -0.15
25 -0.15
26 -0.15
27 0.08
28 -0.15
29 -0.15
3 -0.81
30 0.28
4 0.27
41 0.15
42 0.15
45 0.15
46 0.15
5 0.41
51 0.15
52 0.15
53 0.15
54 0.15
55 0.15
56 0.15
57 0.15
58 0.15
6 0.14
7 0.27
8 -0.14
9 -0.14

> <PUBCHEM_EFFECTIVE_ROTOR_COUNT>
9.8

> <PUBCHEM_PHARMACOPHORE_FEATURES>
7
1 1 acceptor
1 2 acceptor
1 3 cation
6 16 17 21 22 23 24 rings
6 20 25 26 27 28 29 rings
6 3 4 5 6 8 9 rings
6 8 9 11 12 14 15 rings

> <PUBCHEM_HEAVY_ATOM_COUNT>
30

> <PUBCHEM_ATOM_DEF_STEREO_COUNT>
0

> <PUBCHEM_ATOM_UDEF_STEREO_COUNT>
0

> <PUBCHEM_BOND_DEF_STEREO_COUNT>
0

> <PUBCHEM_BOND_UDEF_STEREO_COUNT>
0

> <PUBCHEM_ISOTOPIC_ATOM_COUNT>
0

> <PUBCHEM_COMPONENT_COUNT>
1

> <PUBCHEM_CACTVS_TAUTO_COUNT>
1

> <PUBCHEM_CONFORMER_ID>
017FDB4000000001

> <PUBCHEM_MMFF94_ENERGY>
88.7124

> <PUBCHEM_FEATURE_SELFOVERLAP>
35.544

> <PUBCHEM_SHAPE_FINGERPRINT>
12107698 1 18200586033739310983
12553582 1 18410860927642914809
12596599 1 17917991646421620867
12788726 201 18123762954400427228
13122387 1 18409727365656704347
13583140 156 16557888173781889833
13615921 28 17917719027983829977
14114211 80 18266758908427333659
14251757 5 18337121063787873925
144659 39 16661189352700658996
15210252 30 18261402135053162924
17093844 170 18337947896821540224
20600515 1 18334870419678593950
20764821 26 17903612126147708165
23559900 14 18199739422654753929
25265897 201 17703243844673820143
3052486 1 18334008419584355866
350125 39 18263094343873329451
35225 105 16905553423898126957
354706 35 17620446431487970221
46194498 28 17985834971414882142
508706 21 18336546130975949363
6287921 2 18122630727743111051

> <PUBCHEM_SHAPE_MULTIPOLES>
600.67
8.68
4.86
2.17
3.19
0.85
0.46
-0.86
2.84
0.26
-1.14
-1.08
0.27
0.8

> <PUBCHEM_SHAPE_SELFOVERLAP>
1283.329

> <PUBCHEM_SHAPE_VOLUME>
333.2

> <PUBCHEM_COORDINATE_TYPE>
2
5
10

$$$$