25156412
  -OEChem-03242010103D

 61 64  0     0  0  0  0  0  0999 V2000
   -2.2154   -1.7484    0.5267 O   0  0  0  0  0  0  0  0  0  0  0  0
   -2.3737    3.0223   -1.7073 O   0  0  0  0  0  0  0  0  0  0  0  0
    1.4553   -1.4890    0.3174 N   0  0  0  0  0  0  0  0  0  0  0  0
    4.1516   -0.5616    0.1453 N   0  0  0  0  0  0  0  0  0  0  0  0
    6.4277   -1.0823    0.0853 N   0  0  0  0  0  0  0  0  0  0  0  0
    5.6501    1.1501   -0.3829 N   0  0  0  0  0  0  0  0  0  0  0  0
    2.5008   -2.0832    1.1591 C   0  0  0  0  0  0  0  0  0  0  0  0
    1.7381   -0.0646    0.1010 C   0  0  0  0  0  0  0  0  0  0  0  0
    3.8763   -1.9574    0.4993 C   0  0  0  0  0  0  0  0  0  0  0  0
    3.0873    0.1278   -0.5950 C   0  0  0  0  0  0  0  0  0  0  0  0
    0.1402   -1.6631    0.9330 C   0  0  0  0  0  0  0  0  0  0  0  0
   -0.9595   -1.5565   -0.1113 C   0  0  0  0  0  0  0  0  0  0  0  0
    5.4716   -0.1451   -0.0603 C   0  0  0  0  0  0  0  0  0  0  0  0
   -3.3302   -1.6660   -0.2661 C   0  0  0  0  0  0  0  0  0  0  0  0
   -4.5458   -1.2241    0.2563 C   0  0  0  0  0  0  0  0  0  0  0  0
   -4.6608   -0.8288    1.6914 C   0  0  0  0  0  0  0  0  0  0  0  0
   -4.7101    0.6942    1.9197 C   0  0  0  0  0  0  0  0  0  0  0  0
   -3.2398   -2.0307   -1.6093 C   0  0  0  0  0  0  0  0  0  0  0  0
   -5.6709   -1.1472   -0.5646 C   0  0  0  0  0  0  0  0  0  0  0  0
   -3.4989    1.4160    1.3809 C   0  0  0  0  0  0  0  0  0  0  0  0
    7.6880   -0.6465   -0.1200 C   0  0  0  0  0  0  0  0  0  0  0  0
    6.9343    1.5173   -0.5738 C   0  0  0  0  0  0  0  0  0  0  0  0
   -4.3649   -1.9538   -2.4302 C   0  0  0  0  0  0  0  0  0  0  0  0
    8.0044    0.6543   -0.4546 C   0  0  0  0  0  0  0  0  0  0  0  0
   -5.5805   -1.5120   -1.9079 C   0  0  0  0  0  0  0  0  0  0  0  0
   -3.4959    1.8908    0.0694 C   0  0  0  0  0  0  0  0  0  0  0  0
   -2.3826    1.6081    2.1948 C   0  0  0  0  0  0  0  0  0  0  0  0
   -2.3766    2.5581   -0.4281 C   0  0  0  0  0  0  0  0  0  0  0  0
   -1.2632    2.2753    1.6973 C   0  0  0  0  0  0  0  0  0  0  0  0
   -1.2603    2.7503    0.3859 C   0  0  0  0  0  0  0  0  0  0  0  0
   -1.1967    3.6960   -2.1512 C   0  0  0  0  0  0  0  0  0  0  0  0
    2.2985   -3.1497    1.3170 H   0  0  0  0  0  0  0  0  0  0  0  0
    2.5201   -1.6037    2.1473 H   0  0  0  0  0  0  0  0  0  0  0  0
    1.7403    0.4798    1.0553 H   0  0  0  0  0  0  0  0  0  0  0  0
    0.9751    0.3979   -0.5336 H   0  0  0  0  0  0  0  0  0  0  0  0
    4.6168   -2.3392    1.2128 H   0  0  0  0  0  0  0  0  0  0  0  0
    3.9257   -2.5819   -0.4018 H   0  0  0  0  0  0  0  0  0  0  0  0
    3.0462   -0.2622   -1.6201 H   0  0  0  0  0  0  0  0  0  0  0  0
    3.2657    1.2075   -0.6609 H   0  0  0  0  0  0  0  0  0  0  0  0
   -0.0319   -0.9588    1.7577 H   0  0  0  0  0  0  0  0  0  0  0  0
    0.0559   -2.6616    1.3841 H   0  0  0  0  0  0  0  0  0  0  0  0
   -0.7678   -2.3471   -0.8450 H   0  0  0  0  0  0  0  0  0  0  0  0
   -0.9537   -0.5809   -0.6088 H   0  0  0  0  0  0  0  0  0  0  0  0
   -5.5722   -1.2763    2.1100 H   0  0  0  0  0  0  0  0  0  0  0  0
   -3.8414   -1.2568    2.2824 H   0  0  0  0  0  0  0  0  0  0  0  0
   -4.8071    0.8939    2.9945 H   0  0  0  0  0  0  0  0  0  0  0  0
   -5.6140    1.1155    1.4604 H   0  0  0  0  0  0  0  0  0  0  0  0
   -2.3329   -2.4029   -2.0709 H   0  0  0  0  0  0  0  0  0  0  0  0
   -6.6240   -0.8048   -0.1702 H   0  0  0  0  0  0  0  0  0  0  0  0
    8.4626   -1.3970   -0.0041 H   0  0  0  0  0  0  0  0  0  0  0  0
    7.0844    2.5597   -0.8340 H   0  0  0  0  0  0  0  0  0  0  0  0
   -4.2968   -2.2423   -3.4752 H   0  0  0  0  0  0  0  0  0  0  0  0
   -6.4568   -1.4531   -2.5469 H   0  0  0  0  0  0  0  0  0  0  0  0
    9.0248    0.9764   -0.6135 H   0  0  0  0  0  0  0  0  0  0  0  0
   -4.3640    1.7540   -0.5704 H   0  0  0  0  0  0  0  0  0  0  0  0
   -2.3717    1.2392    3.2169 H   0  0  0  0  0  0  0  0  0  0  0  0
   -0.3931    2.4214    2.3308 H   0  0  0  0  0  0  0  0  0  0  0  0
   -0.3572    3.2573    0.0634 H   0  0  0  0  0  0  0  0  0  0  0  0
   -1.3686    3.9968   -3.1899 H   0  0  0  0  0  0  0  0  0  0  0  0
   -0.3277    3.0291   -2.1510 H   0  0  0  0  0  0  0  0  0  0  0  0
   -1.0171    4.6121   -1.5784 H   0  0  0  0  0  0  0  0  0  0  0  0
  1 12  1  0  0  0  0
  1 14  1  0  0  0  0
  2 28  1  0  0  0  0
  2 31  1  0  0  0  0
  3  7  1  0  0  0  0
  3  8  1  0  0  0  0
  3 11  1  0  0  0  0
  4  9  1  0  0  0  0
  4 10  1  0  0  0  0
  4 13  1  0  0  0  0
  5 13  2  0  0  0  0
  5 21  1  0  0  0  0
  6 13  1  0  0  0  0
  6 22  2  0  0  0  0
  7  9  1  0  0  0  0
  7 32  1  0  0  0  0
  7 33  1  0  0  0  0
  8 10  1  0  0  0  0
  8 34  1  0  0  0  0
  8 35  1  0  0  0  0
  9 36  1  0  0  0  0
  9 37  1  0  0  0  0
 10 38  1  0  0  0  0
 10 39  1  0  0  0  0
 11 12  1  0  0  0  0
 11 40  1  0  0  0  0
 11 41  1  0  0  0  0
 12 42  1  0  0  0  0
 12 43  1  0  0  0  0
 14 15  1  0  0  0  0
 14 18  2  0  0  0  0
 15 16  1  0  0  0  0
 15 19  2  0  0  0  0
 16 17  1  0  0  0  0
 16 44  1  0  0  0  0
 16 45  1  0  0  0  0
 17 20  1  0  0  0  0
 17 46  1  0  0  0  0
 17 47  1  0  0  0  0
 18 23  1  0  0  0  0
 18 48  1  0  0  0  0
 19 25  1  0  0  0  0
 19 49  1  0  0  0  0
 20 26  2  0  0  0  0
 20 27  1  0  0  0  0
 21 24  2  0  0  0  0
 21 50  1  0  0  0  0
 22 24  1  0  0  0  0
 22 51  1  0  0  0  0
 23 25  2  0  0  0  0
 23 52  1  0  0  0  0
 24 54  1  0  0  0  0
 25 53  1  0  0  0  0
 26 28  1  0  0  0  0
 26 55  1  0  0  0  0
 27 29  2  0  0  0  0
 27 56  1  0  0  0  0
 28 30  2  0  0  0  0
 29 30  1  0  0  0  0
 29 57  1  0  0  0  0
 30 58  1  0  0  0  0
 31 59  1  0  0  0  0
 31 60  1  0  0  0  0
 31 61  1  0  0  0  0
M  END
> <PUBCHEM_COMPOUND_CID>
25156412

> <PUBCHEM_CONFORMER_RMSD>
1.2

> <PUBCHEM_CONFORMER_DIVERSEORDER>
10
90
145
28
123
100
159
157
95
178
158
38
94
130
188
194
9
176
165
152
52
190
99
131
98
122
174
23
192
48
16
180
32
169
182
67
184
85
185
171
36
97
91
160
150
64
88
78
46
175
148
161
101
73
129
168
80
170
18
82
30
33
107
86
70
109
144
124
102
155
142
105
39
111
140
13
128
166
1
44
149
60
118
81
136
162
92
121
62
127
156
31
17
104
146
50
27
179
147
57
72
7
5
151
34
15
132
56
189
167
137
181
40
164
173
65
116
54
11
110
29
195
153
177
22
113
186
66
141
45
133
139
135
12
24
8
14
191
120
79
89
26
71
35
93
58
183
154
83
20
117
53
187
172
103
115
4
119
108
87
68
96
138
42
125
41
49
143
55
2
21
69
163
75
25
19
126
63
134
59
193
74
37
51
106
61
76
84
47
77
114
112
3
6
43

> <PUBCHEM_MMFF94_PARTIAL_CHARGES>
42
1 -0.36
10 0.37
11 0.27
12 0.28
13 0.72
14 0.08
15 -0.14
16 0.14
17 0.14
18 -0.15
19 -0.15
2 -0.36
20 -0.14
21 0.16
22 0.16
23 -0.15
24 -0.15
25 -0.15
26 -0.15
27 -0.15
28 0.08
29 -0.15
3 -0.81
30 -0.15
31 0.28
4 -0.84
48 0.15
49 0.15
5 -0.62
50 0.15
51 0.15
52 0.15
53 0.15
54 0.15
55 0.15
56 0.15
57 0.15
58 0.15
6 -0.62
7 0.27
8 0.27
9 0.37

> <PUBCHEM_EFFECTIVE_ROTOR_COUNT>
10.2

> <PUBCHEM_PHARMACOPHORE_FEATURES>
9
1 1 acceptor
1 2 acceptor
1 3 cation
1 6 acceptor
4 4 5 6 13 cation
6 14 15 18 19 23 25 rings
6 20 26 27 28 29 30 rings
6 3 4 7 8 9 10 rings
6 5 6 13 21 22 24 rings

> <PUBCHEM_HEAVY_ATOM_COUNT>
31

> <PUBCHEM_ATOM_DEF_STEREO_COUNT>
0

> <PUBCHEM_ATOM_UDEF_STEREO_COUNT>
0

> <PUBCHEM_BOND_DEF_STEREO_COUNT>
0

> <PUBCHEM_BOND_UDEF_STEREO_COUNT>
0

> <PUBCHEM_ISOTOPIC_ATOM_COUNT>
0

> <PUBCHEM_COMPONENT_COUNT>
1

> <PUBCHEM_CACTVS_TAUTO_COUNT>
1

> <PUBCHEM_CONFORMER_ID>
017FDB3C0000000A

> <PUBCHEM_MMFF94_ENERGY>
101.9563

> <PUBCHEM_FEATURE_SELFOVERLAP>
45.673

> <PUBCHEM_SHAPE_FINGERPRINT>
10087517 78 18408886239567371772
10454371 7 18059863869927092736
10670039 82 18410852162231796562
10871710 139 18410289173860922795
11101153 10 18333733537377169708
12104220 1 18113902675967222614
12107698 1 18059573637543714004
13631057 29 18272365382325238288
14068700 675 18059291071165509113
14394314 77 18410020901334833241
14856354 85 17132119056326869549
14910302 57 17131287774112929407
15183329 4 18409165524522601258
15276724 80 18410570691486516078
15876981 60 18129945701620049295
17492 54 17978482284827486309
17686467 74 17915168234216993146
17899979 19 18260828224511864469
18336668 15 18340212972611694201
21236236 1 18412829079685087394
21304303 64 18114178606726788429
23523788 1 13541070229185660095
4098825 35 17774732974394812622
469060 322 18186522111535373141
497634 4 17917994962183385129
7237137 82 18273213084331228570

> <PUBCHEM_SHAPE_MULTIPOLES>
606.3
18.33
3.56
1.94
39.89
2.52
-0.35
-3.54
-3.27
-3.44
-1.2
-3.45
0.57
-2.43

> <PUBCHEM_SHAPE_SELFOVERLAP>
1289.961

> <PUBCHEM_SHAPE_VOLUME>
335.9

> <PUBCHEM_COORDINATE_TYPE>
2
5
10

$$$$