25156413
  -OEChem-03242010103D

 67 70  0     0  0  0  0  0  0999 V2000
   -3.6894    1.8440   -0.3459 O   0  0  0  0  0  0  0  0  0  0  0  0
    1.5097   -1.9602    1.4800 O   0  0  0  0  0  0  0  0  0  0  0  0
    1.3852    2.1000    0.7707 N   0  0  0  0  0  0  0  0  0  0  0  0
    3.9286    1.1964   -0.1641 N   0  0  0  0  0  0  0  0  0  0  0  0
    6.1268    0.5914    0.3424 N   0  0  0  0  0  0  0  0  0  0  0  0
    5.2056    0.2073   -1.8510 N   0  0  0  0  0  0  0  0  0  0  0  0
    2.6227    2.6822    1.3041 C   0  0  0  0  0  0  0  0  0  0  0  0
    1.5714    1.7370   -0.6396 C   0  0  0  0  0  0  0  0  0  0  0  0
    3.7836    1.6889    1.2092 C   0  0  0  0  0  0  0  0  0  0  0  0
    2.6964    0.7116   -0.7986 C   0  0  0  0  0  0  0  0  0  0  0  0
    0.2726    3.0380    0.9162 C   0  0  0  0  0  0  0  0  0  0  0  0
   -1.0610    2.3001    0.8116 C   0  0  0  0  0  0  0  0  0  0  0  0
   -2.2380    3.2640    0.9521 C   0  0  0  0  0  0  0  0  0  0  0  0
    5.1439    0.6390   -0.5769 C   0  0  0  0  0  0  0  0  0  0  0  0
   -3.5729    2.5334    0.8916 C   0  0  0  0  0  0  0  0  0  0  0  0
   -4.8524    1.1511   -0.5604 C   0  0  0  0  0  0  0  0  0  0  0  0
   -4.8317   -0.2263   -0.7796 C   0  0  0  0  0  0  0  0  0  0  0  0
   -3.5424   -0.9789   -0.7842 C   0  0  0  0  0  0  0  0  0  0  0  0
   -3.2903   -1.7976    0.4966 C   0  0  0  0  0  0  0  0  0  0  0  0
    7.2842    0.0483   -0.0892 C   0  0  0  0  0  0  0  0  0  0  0  0
    6.3911   -0.3239   -2.2152 C   0  0  0  0  0  0  0  0  0  0  0  0
   -6.0658    1.8389   -0.5587 C   0  0  0  0  0  0  0  0  0  0  0  0
    7.4760   -0.4304   -1.3691 C   0  0  0  0  0  0  0  0  0  0  0  0
   -6.0247   -0.9157   -0.9972 C   0  0  0  0  0  0  0  0  0  0  0  0
   -1.9665   -2.5225    0.4884 C   0  0  0  0  0  0  0  0  0  0  0  0
   -7.2586    1.1494   -0.7762 C   0  0  0  0  0  0  0  0  0  0  0  0
   -7.2381   -0.2279   -0.9955 C   0  0  0  0  0  0  0  0  0  0  0  0
   -0.8260   -1.8983    0.9937 C   0  0  0  0  0  0  0  0  0  0  0  0
   -1.8837   -3.8169   -0.0247 C   0  0  0  0  0  0  0  0  0  0  0  0
    0.3971   -2.5687    0.9863 C   0  0  0  0  0  0  0  0  0  0  0  0
   -0.6605   -4.4873   -0.0323 C   0  0  0  0  0  0  0  0  0  0  0  0
    0.4798   -3.8631    0.4732 C   0  0  0  0  0  0  0  0  0  0  0  0
    2.7273   -2.7033    1.4422 C   0  0  0  0  0  0  0  0  0  0  0  0
    2.4912    2.9477    2.3601 H   0  0  0  0  0  0  0  0  0  0  0  0
    2.8803    3.6037    0.7644 H   0  0  0  0  0  0  0  0  0  0  0  0
    1.8026    2.6265   -1.2415 H   0  0  0  0  0  0  0  0  0  0  0  0
    0.6677    1.2868   -1.0620 H   0  0  0  0  0  0  0  0  0  0  0  0
    4.6890    2.2117    1.5410 H   0  0  0  0  0  0  0  0  0  0  0  0
    3.6174    0.8421    1.8874 H   0  0  0  0  0  0  0  0  0  0  0  0
    2.4080   -0.2460   -0.3529 H   0  0  0  0  0  0  0  0  0  0  0  0
    2.8288    0.5439   -1.8739 H   0  0  0  0  0  0  0  0  0  0  0  0
    0.3075    3.5057    1.9091 H   0  0  0  0  0  0  0  0  0  0  0  0
    0.3313    3.8529    0.1831 H   0  0  0  0  0  0  0  0  0  0  0  0
   -1.1210    1.5389    1.5993 H   0  0  0  0  0  0  0  0  0  0  0  0
   -1.1478    1.7786   -0.1463 H   0  0  0  0  0  0  0  0  0  0  0  0
   -2.1924    3.9984    0.1387 H   0  0  0  0  0  0  0  0  0  0  0  0
   -2.1673    3.8114    1.8989 H   0  0  0  0  0  0  0  0  0  0  0  0
   -3.6466    1.8158    1.7181 H   0  0  0  0  0  0  0  0  0  0  0  0
   -4.3733    3.2731    1.0031 H   0  0  0  0  0  0  0  0  0  0  0  0
   -3.5344   -1.6524   -1.6527 H   0  0  0  0  0  0  0  0  0  0  0  0
   -2.6957   -0.3028   -0.9582 H   0  0  0  0  0  0  0  0  0  0  0  0
   -4.0989   -2.5254    0.6465 H   0  0  0  0  0  0  0  0  0  0  0  0
   -3.3329   -1.1359    1.3724 H   0  0  0  0  0  0  0  0  0  0  0  0
    8.0797    0.0072    0.6471 H   0  0  0  0  0  0  0  0  0  0  0  0
    6.4468   -0.6734   -3.2406 H   0  0  0  0  0  0  0  0  0  0  0  0
   -6.1023    2.9142   -0.4092 H   0  0  0  0  0  0  0  0  0  0  0  0
    8.4154   -0.8612   -1.6883 H   0  0  0  0  0  0  0  0  0  0  0  0
   -6.0225   -1.9888   -1.1702 H   0  0  0  0  0  0  0  0  0  0  0  0
   -8.2031    1.6855   -0.7794 H   0  0  0  0  0  0  0  0  0  0  0  0
   -8.1669   -0.7644   -1.1662 H   0  0  0  0  0  0  0  0  0  0  0  0
   -0.8836   -0.8903    1.3949 H   0  0  0  0  0  0  0  0  0  0  0  0
   -2.7650   -4.3126   -0.4230 H   0  0  0  0  0  0  0  0  0  0  0  0
   -0.5971   -5.4950   -0.4326 H   0  0  0  0  0  0  0  0  0  0  0  0
    1.3970   -4.4408    0.4366 H   0  0  0  0  0  0  0  0  0  0  0  0
    3.5074   -2.0662    1.8720 H   0  0  0  0  0  0  0  0  0  0  0  0
    3.0301   -2.9270    0.4136 H   0  0  0  0  0  0  0  0  0  0  0  0
    2.6695   -3.6030    2.0640 H   0  0  0  0  0  0  0  0  0  0  0  0
  1 15  1  0  0  0  0
  1 16  1  0  0  0  0
  2 30  1  0  0  0  0
  2 33  1  0  0  0  0
  3  7  1  0  0  0  0
  3  8  1  0  0  0  0
  3 11  1  0  0  0  0
  4  9  1  0  0  0  0
  4 10  1  0  0  0  0
  4 14  1  0  0  0  0
  5 14  2  0  0  0  0
  5 20  1  0  0  0  0
  6 14  1  0  0  0  0
  6 21  2  0  0  0  0
  7  9  1  0  0  0  0
  7 34  1  0  0  0  0
  7 35  1  0  0  0  0
  8 10  1  0  0  0  0
  8 36  1  0  0  0  0
  8 37  1  0  0  0  0
  9 38  1  0  0  0  0
  9 39  1  0  0  0  0
 10 40  1  0  0  0  0
 10 41  1  0  0  0  0
 11 12  1  0  0  0  0
 11 42  1  0  0  0  0
 11 43  1  0  0  0  0
 12 13  1  0  0  0  0
 12 44  1  0  0  0  0
 12 45  1  0  0  0  0
 13 15  1  0  0  0  0
 13 46  1  0  0  0  0
 13 47  1  0  0  0  0
 15 48  1  0  0  0  0
 15 49  1  0  0  0  0
 16 17  1  0  0  0  0
 16 22  2  0  0  0  0
 17 18  1  0  0  0  0
 17 24  2  0  0  0  0
 18 19  1  0  0  0  0
 18 50  1  0  0  0  0
 18 51  1  0  0  0  0
 19 25  1  0  0  0  0
 19 52  1  0  0  0  0
 19 53  1  0  0  0  0
 20 23  2  0  0  0  0
 20 54  1  0  0  0  0
 21 23  1  0  0  0  0
 21 55  1  0  0  0  0
 22 26  1  0  0  0  0
 22 56  1  0  0  0  0
 23 57  1  0  0  0  0
 24 27  1  0  0  0  0
 24 58  1  0  0  0  0
 25 28  2  0  0  0  0
 25 29  1  0  0  0  0
 26 27  2  0  0  0  0
 26 59  1  0  0  0  0
 27 60  1  0  0  0  0
 28 30  1  0  0  0  0
 28 61  1  0  0  0  0
 29 31  2  0  0  0  0
 29 62  1  0  0  0  0
 30 32  2  0  0  0  0
 31 32  1  0  0  0  0
 31 63  1  0  0  0  0
 32 64  1  0  0  0  0
 33 65  1  0  0  0  0
 33 66  1  0  0  0  0
 33 67  1  0  0  0  0
M  END
> <PUBCHEM_COMPOUND_CID>
25156413

> <PUBCHEM_CONFORMER_RMSD>
1.6

> <PUBCHEM_CONFORMER_DIVERSEORDER>
1
118
62
74
35
86
11
125
46
94
37
112
101
7
81
75
39
78
14
99
79
23
9
18
58
100
91
24
116
64
51
98
97
88
28
87
69
76
117
104
92
122
126
119
26
22
5
68
82
65
52
44
41
114
3
57
25
6
27
84
63
4
71
36
108
107
120
72
40
124
30
102
93
54
123
45
67
20
110
90
32
16
13
2
83
31
113
73
103
121
43
55
21
17
50
38
105
56
47
12
70
61
49
106
77
48
34
53
95
59
66
115
8
109
96
10
42
111
33
19
15
85
60
80
89
29

> <PUBCHEM_MMFF94_PARTIAL_CHARGES>
42
1 -0.36
10 0.37
11 0.27
14 0.72
15 0.28
16 0.08
17 -0.14
18 0.14
19 0.14
2 -0.36
20 0.16
21 0.16
22 -0.15
23 -0.15
24 -0.15
25 -0.14
26 -0.15
27 -0.15
28 -0.15
29 -0.15
3 -0.81
30 0.08
31 -0.15
32 -0.15
33 0.28
4 -0.84
5 -0.62
54 0.15
55 0.15
56 0.15
57 0.15
58 0.15
59 0.15
6 -0.62
60 0.15
61 0.15
62 0.15
63 0.15
64 0.15
7 0.27
8 0.27
9 0.37

> <PUBCHEM_EFFECTIVE_ROTOR_COUNT>
12.2

> <PUBCHEM_PHARMACOPHORE_FEATURES>
9
1 1 acceptor
1 2 acceptor
1 3 cation
1 6 acceptor
4 4 5 6 14 cation
6 16 17 22 24 26 27 rings
6 25 28 29 30 31 32 rings
6 3 4 7 8 9 10 rings
6 5 6 14 20 21 23 rings

> <PUBCHEM_HEAVY_ATOM_COUNT>
33

> <PUBCHEM_ATOM_DEF_STEREO_COUNT>
0

> <PUBCHEM_ATOM_UDEF_STEREO_COUNT>
0

> <PUBCHEM_BOND_DEF_STEREO_COUNT>
0

> <PUBCHEM_BOND_UDEF_STEREO_COUNT>
0

> <PUBCHEM_ISOTOPIC_ATOM_COUNT>
0

> <PUBCHEM_COMPONENT_COUNT>
1

> <PUBCHEM_CACTVS_TAUTO_COUNT>
1

> <PUBCHEM_CONFORMER_ID>
017FDB3D00000001

> <PUBCHEM_MMFF94_ENERGY>
101.516

> <PUBCHEM_FEATURE_SELFOVERLAP>
45.673

> <PUBCHEM_SHAPE_FINGERPRINT>
10190206 1 18340497685666776084
10483366 6 18411138022027179650
10864689 126 18413100663547579945
11135926 11 18336827486273850541
11513181 2 18128541453025022102
12202916 173 18060418019133666702
14394314 77 18339644435006658273
14931854 50 18410849945944250061
15001296 14 18261942059254432969
15052358 14 18411422842936563310
15183329 4 18409731755382163122
15297060 5 18343586222566450499
15322534 239 18412265038614904543
15351339 4 18339075982450226211
15781502 589 18129664089263460038
15790856 291 18266186204503833734
15890870 6 18335417959258117647
15927050 60 17839475387864473208
17627616 140 18265616468274373683
19311894 1 18269560609867790203
21133410 230 17824284763919330899
22440779 20 16303484384728551218
23559900 14 18270676605496119937
24893992 56 18336825394941009127
3383291 50 18341612659245350611
42767 46 18334290976618362341
437795 70 18272660056015927294
508180 173 18341613762619020578
5085150 59 18341889680499217758
513532 50 18059845186713944698
5265222 85 18187933940099747684
59755656 215 18411699880868834788
6138700 20 18343581854927835237
6371380 46 18411134775047572158
6376802 137 17203616977477289816

> <PUBCHEM_SHAPE_MULTIPOLES>
647.46
18.53
5.06
1.51
6.6
3.81
0.26
-5.68
11.2
-2.3
-2.27
1.65
-0.04
0.1

> <PUBCHEM_SHAPE_SELFOVERLAP>
1363.581

> <PUBCHEM_SHAPE_VOLUME>
362.4

> <PUBCHEM_COORDINATE_TYPE>
2
5
10

$$$$