133055
  -OEChem-03242010103D

 78 79  0     1  0  0  0  0  0999 V2000
   -1.3898    0.0078   -0.9830 O   0  0  0  0  0  0  0  0  0  0  0  0
    0.3231    1.9027    0.0984 O   0  0  0  0  0  0  0  0  0  0  0  0
    0.9387   -3.7976    0.5622 O   0  0  0  0  0  0  0  0  0  0  0  0
    1.9471    0.0912    2.1092 O   0  0  0  0  0  0  0  0  0  0  0  0
    0.5716    3.8074   -1.1564 O   0  0  0  0  0  0  0  0  0  0  0  0
   -1.5341   -0.6525    1.2255 O   0  0  0  0  0  0  0  0  0  0  0  0
    2.1113   -0.3156   -0.1744 N   0  0  0  0  0  0  0  0  0  0  0  0
    2.1397   -1.7881   -0.0264 C   0  0  2  0  0  0  0  0  0  0  0  0
   -2.1066    1.2436   -0.7355 C   0  0  1  0  0  0  0  0  0  0  0  0
    0.8059   -2.3730    0.5053 C   0  0  1  0  0  0  0  0  0  0  0  0
   -1.3969    2.4140   -1.4650 C   0  0  1  0  0  0  0  0  0  0  0  0
   -3.5443    1.0428   -1.2063 C   0  0  0  0  0  0  0  0  0  0  0  0
    1.6360    1.9835    0.6816 C   0  0  1  0  0  0  0  0  0  0  0  0
    3.3513   -2.2476    0.7963 C   0  0  0  0  0  0  0  0  0  0  0  0
   -4.3475    0.2257   -0.1982 C   0  0  0  0  0  0  0  0  0  0  0  0
   -0.4040   -2.0524   -0.3893 C   0  0  0  0  0  0  0  0  0  0  0  0
    1.5568    2.8120    1.9553 C   0  0  0  0  0  0  0  0  0  0  0  0
    1.9292    0.5105    0.9483 C   0  0  0  0  0  0  0  0  0  0  0  0
   -5.7970    0.0537   -0.6585 C   0  0  0  0  0  0  0  0  0  0  0  0
   -0.0652    2.8142   -0.8264 C   0  0  0  0  0  0  0  0  0  0  0  0
   -1.1663   -0.8301    0.0714 C   0  0  0  0  0  0  0  0  0  0  0  0
   -1.1461    2.1368   -2.9481 C   0  0  0  0  0  0  0  0  0  0  0  0
   -6.5949   -0.7976    0.3317 C   0  0  0  0  0  0  0  0  0  0  0  0
    2.2807    0.1689   -1.5459 C   0  0  0  0  0  0  0  0  0  0  0  0
    4.6361   -1.7768    0.1814 C   0  0  0  0  0  0  0  0  0  0  0  0
    1.7925    4.2902    1.6511 C   0  0  0  0  0  0  0  0  0  0  0  0
    0.2072    2.6148    2.6425 C   0  0  0  0  0  0  0  0  0  0  0  0
   -8.0355   -1.0623   -0.1152 C   0  0  0  0  0  0  0  0  0  0  0  0
   -8.8102   -1.9736    0.8378 C   0  0  0  0  0  0  0  0  0  0  0  0
    5.2921   -2.5722   -0.7582 C   0  0  0  0  0  0  0  0  0  0  0  0
    5.1746   -0.5436    0.5487 C   0  0  0  0  0  0  0  0  0  0  0  0
    6.4866   -2.1346   -1.3302 C   0  0  0  0  0  0  0  0  0  0  0  0
    6.3691   -0.1060   -0.0234 C   0  0  0  0  0  0  0  0  0  0  0  0
  -10.2362   -2.1948    0.3568 C   0  0  0  0  0  0  0  0  0  0  0  0
    7.0251   -0.9014   -0.9629 C   0  0  0  0  0  0  0  0  0  0  0  0
    2.2759   -2.2104   -1.0337 H   0  0  0  0  0  0  0  0  0  0  0  0
   -2.1135    1.4774    0.3373 H   0  0  0  0  0  0  0  0  0  0  0  0
    0.6327   -2.0358    1.5327 H   0  0  0  0  0  0  0  0  0  0  0  0
   -2.0378    3.3004   -1.3679 H   0  0  0  0  0  0  0  0  0  0  0  0
   -3.5618    0.5315   -2.1764 H   0  0  0  0  0  0  0  0  0  0  0  0
   -4.0339    2.0160   -1.3330 H   0  0  0  0  0  0  0  0  0  0  0  0
    2.3846    2.3931   -0.0023 H   0  0  0  0  0  0  0  0  0  0  0  0
    3.2940   -1.9102    1.8372 H   0  0  0  0  0  0  0  0  0  0  0  0
    3.3772   -3.3432    0.8582 H   0  0  0  0  0  0  0  0  0  0  0  0
   -3.9016   -0.7671   -0.0769 H   0  0  0  0  0  0  0  0  0  0  0  0
   -4.3308    0.7160    0.7825 H   0  0  0  0  0  0  0  0  0  0  0  0
   -1.1249   -2.8796   -0.3888 H   0  0  0  0  0  0  0  0  0  0  0  0
   -0.0901   -1.9336   -1.4324 H   0  0  0  0  0  0  0  0  0  0  0  0
    2.3552    2.5027    2.6420 H   0  0  0  0  0  0  0  0  0  0  0  0
   -6.2735    1.0356   -0.7645 H   0  0  0  0  0  0  0  0  0  0  0  0
   -5.8146   -0.4234   -1.6460 H   0  0  0  0  0  0  0  0  0  0  0  0
   -0.6877    3.0050   -3.4347 H   0  0  0  0  0  0  0  0  0  0  0  0
   -2.0795    1.9204   -3.4761 H   0  0  0  0  0  0  0  0  0  0  0  0
   -0.4654    1.2911   -3.0902 H   0  0  0  0  0  0  0  0  0  0  0  0
   -6.0857   -1.7596    0.4702 H   0  0  0  0  0  0  0  0  0  0  0  0
   -6.6066   -0.3025    1.3105 H   0  0  0  0  0  0  0  0  0  0  0  0
    3.1794   -0.2821   -1.9768 H   0  0  0  0  0  0  0  0  0  0  0  0
    2.3841    1.2487   -1.6215 H   0  0  0  0  0  0  0  0  0  0  0  0
    1.4115   -0.1408   -2.1321 H   0  0  0  0  0  0  0  0  0  0  0  0
    0.9590    4.7409    1.1060 H   0  0  0  0  0  0  0  0  0  0  0  0
    1.8990    4.8516    2.5865 H   0  0  0  0  0  0  0  0  0  0  0  0
    2.7111    4.4394    1.0744 H   0  0  0  0  0  0  0  0  0  0  0  0
   -0.6198    3.0616    2.0800 H   0  0  0  0  0  0  0  0  0  0  0  0
   -0.0248    1.5596    2.8147 H   0  0  0  0  0  0  0  0  0  0  0  0
    0.2181    3.1043    3.6234 H   0  0  0  0  0  0  0  0  0  0  0  0
   -8.5607   -0.1038   -0.2109 H   0  0  0  0  0  0  0  0  0  0  0  0
   -8.0226   -1.5165   -1.1139 H   0  0  0  0  0  0  0  0  0  0  0  0
    0.1365   -4.1497    0.9843 H   0  0  0  0  0  0  0  0  0  0  0  0
   -8.3020   -2.9412    0.9213 H   0  0  0  0  0  0  0  0  0  0  0  0
   -8.8312   -1.5297    1.8397 H   0  0  0  0  0  0  0  0  0  0  0  0
    4.8815   -3.5338   -1.0548 H   0  0  0  0  0  0  0  0  0  0  0  0
    4.6904    0.0824    1.2921 H   0  0  0  0  0  0  0  0  0  0  0  0
    6.9971   -2.7536   -2.0622 H   0  0  0  0  0  0  0  0  0  0  0  0
    6.7906    0.8523    0.2656 H   0  0  0  0  0  0  0  0  0  0  0  0
  -10.2483   -2.6657   -0.6313 H   0  0  0  0  0  0  0  0  0  0  0  0
  -10.7729   -2.8486    1.0514 H   0  0  0  0  0  0  0  0  0  0  0  0
  -10.7802   -1.2471    0.2931 H   0  0  0  0  0  0  0  0  0  0  0  0
    7.9555   -0.5610   -1.4077 H   0  0  0  0  0  0  0  0  0  0  0  0
  1  9  1  0  0  0  0
  1 21  1  0  0  0  0
  2 13  1  0  0  0  0
  2 20  1  0  0  0  0
  3 10  1  0  0  0  0
  3 68  1  0  0  0  0
  4 18  2  0  0  0  0
  5 20  2  0  0  0  0
  6 21  2  0  0  0  0
  7  8  1  0  0  0  0
  7 18  1  0  0  0  0
  7 24  1  0  0  0  0
  8 10  1  0  0  0  0
  8 14  1  0  0  0  0
  8 36  1  0  0  0  0
  9 11  1  0  0  0  0
  9 12  1  0  0  0  0
  9 37  1  0  0  0  0
 10 16  1  0  0  0  0
 10 38  1  0  0  0  0
 11 20  1  0  0  0  0
 11 22  1  0  0  0  0
 11 39  1  0  0  0  0
 12 15  1  0  0  0  0
 12 40  1  0  0  0  0
 12 41  1  0  0  0  0
 13 17  1  0  0  0  0
 13 18  1  0  0  0  0
 13 42  1  0  0  0  0
 14 25  1  0  0  0  0
 14 43  1  0  0  0  0
 14 44  1  0  0  0  0
 15 19  1  0  0  0  0
 15 45  1  0  0  0  0
 15 46  1  0  0  0  0
 16 21  1  0  0  0  0
 16 47  1  0  0  0  0
 16 48  1  0  0  0  0
 17 26  1  0  0  0  0
 17 27  1  0  0  0  0
 17 49  1  0  0  0  0
 19 23  1  0  0  0  0
 19 50  1  0  0  0  0
 19 51  1  0  0  0  0
 22 52  1  0  0  0  0
 22 53  1  0  0  0  0
 22 54  1  0  0  0  0
 23 28  1  0  0  0  0
 23 55  1  0  0  0  0
 23 56  1  0  0  0  0
 24 57  1  0  0  0  0
 24 58  1  0  0  0  0
 24 59  1  0  0  0  0
 25 30  2  0  0  0  0
 25 31  1  0  0  0  0
 26 60  1  0  0  0  0
 26 61  1  0  0  0  0
 26 62  1  0  0  0  0
 27 63  1  0  0  0  0
 27 64  1  0  0  0  0
 27 65  1  0  0  0  0
 28 29  1  0  0  0  0
 28 66  1  0  0  0  0
 28 67  1  0  0  0  0
 29 34  1  0  0  0  0
 29 69  1  0  0  0  0
 29 70  1  0  0  0  0
 30 32  1  0  0  0  0
 30 71  1  0  0  0  0
 31 33  2  0  0  0  0
 31 72  1  0  0  0  0
 32 35  2  0  0  0  0
 32 73  1  0  0  0  0
 33 35  1  0  0  0  0
 33 74  1  0  0  0  0
 34 75  1  0  0  0  0
 34 76  1  0  0  0  0
 34 77  1  0  0  0  0
 35 78  1  0  0  0  0
M  END
> <PUBCHEM_COMPOUND_CID>
133055

> <PUBCHEM_CONFORMER_RMSD>
1

> <PUBCHEM_CONFORMER_DIVERSEORDER>
2
76
60
3
27
109
138
48
67
95
132
104
120
18
39
135
78
116
9
36
146
33
110
151
150
117
100
125
8
91
108
147
47
56
129
107
63
148
26
28
42
5
131
62
134
83
16
136
12
66
54
153
58
124
70
123
13
32
37
40
118
155
52
51
15
19
145
71
45
99
23
154
84
101
140
102
49
31
92
130
142
126
29
88
85
152
90
65
75
46
81
79
34
105
35
97
121
43
77
61
122
4
96
80
106
143
68
64
87
69
113
59
133
141
25
22
55
74
50
93
119
114
111
20
1
24
41
128
30
137
86
53
103
44
149
89
21
7
94
57
72
144
82
139
6
127
11
98
115
73
14
10
38
17
112

> <PUBCHEM_MMFF94_PARTIAL_CHARGES>
30
1 -0.43
10 0.28
11 0.06
13 0.34
14 0.14
16 0.06
18 0.57
2 -0.43
20 0.66
21 0.66
24 0.3
25 -0.14
3 -0.68
30 -0.15
31 -0.15
32 -0.15
33 -0.15
35 -0.15
4 -0.57
5 -0.57
6 -0.57
68 0.4
7 -0.66
71 0.15
72 0.15
73 0.15
74 0.15
78 0.15
8 0.3
9 0.28

> <PUBCHEM_EFFECTIVE_ROTOR_COUNT>
10.8

> <PUBCHEM_PHARMACOPHORE_FEATURES>
10
1 3 acceptor
1 3 donor
1 34 hydrophobe
1 4 acceptor
1 5 acceptor
1 6 acceptor
3 12 15 19 hydrophobe
3 17 26 27 hydrophobe
3 23 28 29 hydrophobe
6 25 30 31 32 33 35 rings

> <PUBCHEM_HEAVY_ATOM_COUNT>
35

> <PUBCHEM_ATOM_DEF_STEREO_COUNT>
5

> <PUBCHEM_ATOM_UDEF_STEREO_COUNT>
0

> <PUBCHEM_BOND_DEF_STEREO_COUNT>
0

> <PUBCHEM_BOND_UDEF_STEREO_COUNT>
0

> <PUBCHEM_ISOTOPIC_ATOM_COUNT>
0

> <PUBCHEM_COMPONENT_COUNT>
1

> <PUBCHEM_CACTVS_TAUTO_COUNT>
1

> <PUBCHEM_CONFORMER_ID>
000207BF00000002

> <PUBCHEM_MMFF94_ENERGY>
75.0892

> <PUBCHEM_FEATURE_SELFOVERLAP>
50.76

> <PUBCHEM_SHAPE_FINGERPRINT>
10076449 9 18412831270055299846
10165383 225 18265895950365770408
12035758 1 18198598056654795728
12522641 24 18130226064717168913
12788726 201 16765893478862067480
13673619 4 18409728448220818357
14400156 188 18410011048595414659
14955137 171 17989484117183772671
15064986 96 18190456258718722089
15439362 3 18197774621045963192
18608769 82 18335417976243087239
21049683 271 18408044017649884500
23559900 14 18187640323978101253
23569917 315 18192993717752347250
3178227 256 18343301479172744819
404807 78 17603594066440216675
4112364 45 15913321446750936969
437815 12 18341897380932032859
469060 322 18044952181346091772
9962374 69 18130780209982949919

> <PUBCHEM_SHAPE_MULTIPOLES>
680.09
19.26
4.43
1.9
45.49
2.84
0.08
-21.88
0.08
-2.15
-0.97
-0.48
1.86
2.66

> <PUBCHEM_SHAPE_SELFOVERLAP>
1374.902

> <PUBCHEM_SHAPE_VOLUME>
393.7

> <PUBCHEM_COORDINATE_TYPE>
2
5
10

$$$$