56945305
  -OEChem-03242010103D

 38 39  0     0  0  0  0  0  0999 V2000
   -5.1945   -1.6504    0.5553 O   0  0  0  0  0  0  0  0  0  0  0  0
    6.0262   -0.7118    0.0009 O   0  0  0  0  0  0  0  0  0  0  0  0
   -3.7123    2.7117   -0.7536 O   0  0  0  0  0  0  0  0  0  0  0  0
   -5.7647    0.9936   -0.0415 O   0  0  0  0  0  0  0  0  0  0  0  0
   -0.2802   -2.0809   -0.5001 O   0  0  0  0  0  0  0  0  0  0  0  0
    2.1140    3.0587   -0.4859 O   0  5  0  0  0  0  0  0  0  0  0  0
    2.0229    2.5999    1.6589 O   0  0  0  0  0  0  0  0  0  0  0  0
    0.5166    0.0835   -0.0681 N   0  0  0  0  0  0  0  0  0  0  0  0
    2.2815    2.2742    0.4768 N   0  3  0  0  0  0  0  0  0  0  0  0
    1.9215   -0.0973   -0.0459 C   0  0  0  0  0  0  0  0  0  0  0  0
   -1.8526   -0.3894   -0.2209 C   0  0  0  0  0  0  0  0  0  0  0  0
    2.7831    0.9674    0.2185 C   0  0  0  0  0  0  0  0  0  0  0  0
   -0.4832   -0.8749   -0.2851 C   0  0  0  0  0  0  0  0  0  0  0  0
   -2.8835   -1.2574    0.1393 C   0  0  0  0  0  0  0  0  0  0  0  0
   -2.1358    0.9431   -0.5203 C   0  0  0  0  0  0  0  0  0  0  0  0
    2.4395   -1.3684   -0.2946 C   0  0  0  0  0  0  0  0  0  0  0  0
   -4.1973   -0.7928    0.2001 C   0  0  0  0  0  0  0  0  0  0  0  0
    4.1624    0.7611    0.2345 C   0  0  0  0  0  0  0  0  0  0  0  0
   -3.4495    1.4077   -0.4597 C   0  0  0  0  0  0  0  0  0  0  0  0
    4.6802   -0.5101   -0.0140 C   0  0  0  0  0  0  0  0  0  0  0  0
   -4.4803    0.5397   -0.0992 C   0  0  0  0  0  0  0  0  0  0  0  0
    3.8187   -1.5748   -0.2786 C   0  0  0  0  0  0  0  0  0  0  0  0
   -4.8193   -2.9957    0.8452 C   0  0  0  0  0  0  0  0  0  0  0  0
    6.4868   -2.0365   -0.2622 C   0  0  0  0  0  0  0  0  0  0  0  0
    0.2218    1.0276    0.1595 H   0  0  0  0  0  0  0  0  0  0  0  0
   -2.6116   -2.2817    0.3703 H   0  0  0  0  0  0  0  0  0  0  0  0
   -1.3638    1.6355   -0.8441 H   0  0  0  0  0  0  0  0  0  0  0  0
    1.8466   -2.2438   -0.5138 H   0  0  0  0  0  0  0  0  0  0  0  0
    4.8421    1.5853    0.4400 H   0  0  0  0  0  0  0  0  0  0  0  0
    4.1548   -2.5861   -0.4813 H   0  0  0  0  0  0  0  0  0  0  0  0
   -2.8802    3.1625   -0.9773 H   0  0  0  0  0  0  0  0  0  0  0  0
   -5.7680    1.9368   -0.2804 H   0  0  0  0  0  0  0  0  0  0  0  0
   -4.3961   -3.4958   -0.0327 H   0  0  0  0  0  0  0  0  0  0  0  0
   -4.1601   -3.0523    1.7182 H   0  0  0  0  0  0  0  0  0  0  0  0
   -5.7357   -3.5358    1.1055 H   0  0  0  0  0  0  0  0  0  0  0  0
    7.5803   -2.0145   -0.2101 H   0  0  0  0  0  0  0  0  0  0  0  0
    6.2217   -2.3612   -1.2741 H   0  0  0  0  0  0  0  0  0  0  0  0
    6.1446   -2.7411    0.5034 H   0  0  0  0  0  0  0  0  0  0  0  0
  1 17  1  0  0  0  0
  1 23  1  0  0  0  0
  2 20  1  0  0  0  0
  2 24  1  0  0  0  0
  3 19  1  0  0  0  0
  3 31  1  0  0  0  0
  4 21  1  0  0  0  0
  4 32  1  0  0  0  0
  5 13  2  0  0  0  0
  6  9  1  0  0  0  0
  7  9  2  0  0  0  0
  8 10  1  0  0  0  0
  8 13  1  0  0  0  0
  8 25  1  0  0  0  0
  9 12  1  0  0  0  0
 10 12  2  0  0  0  0
 10 16  1  0  0  0  0
 11 13  1  0  0  0  0
 11 14  1  0  0  0  0
 11 15  2  0  0  0  0
 12 18  1  0  0  0  0
 14 17  2  0  0  0  0
 14 26  1  0  0  0  0
 15 19  1  0  0  0  0
 15 27  1  0  0  0  0
 16 22  2  0  0  0  0
 16 28  1  0  0  0  0
 17 21  1  0  0  0  0
 18 20  2  0  0  0  0
 18 29  1  0  0  0  0
 19 21  2  0  0  0  0
 20 22  1  0  0  0  0
 22 30  1  0  0  0  0
 23 33  1  0  0  0  0
 23 34  1  0  0  0  0
 23 35  1  0  0  0  0
 24 36  1  0  0  0  0
 24 37  1  0  0  0  0
 24 38  1  0  0  0  0
M  CHG  2   6  -1   9   1
M  END
> <PUBCHEM_COMPOUND_CID>
56945305

> <PUBCHEM_CONFORMER_RMSD>
0.8

> <PUBCHEM_CONFORMER_DIVERSEORDER>
3
18
27
21
20
23
12
25
4
7
16
15
10
5
11
14
17
26
6
8
19
2
22
9
24
13
1

> <PUBCHEM_MMFF94_PARTIAL_CHARGES>
32
1 -0.36
10 0.12
11 0.09
12 0.13
13 0.54
14 -0.15
15 -0.15
16 -0.15
17 0.08
18 -0.15
19 0.08
2 -0.36
20 0.08
21 0.08
22 -0.15
23 0.28
24 0.28
25 0.37
26 0.15
27 0.15
28 0.15
29 0.15
3 -0.53
30 0.15
31 0.45
32 0.45
4 -0.53
5 -0.57
6 -0.52
7 -0.52
8 -0.55
9 0.91

> <PUBCHEM_EFFECTIVE_ROTOR_COUNT>
6

> <PUBCHEM_PHARMACOPHORE_FEATURES>
11
1 1 acceptor
1 2 acceptor
1 3 donor
1 4 donor
1 5 acceptor
1 6 acceptor
1 6 anion
1 7 acceptor
1 8 donor
6 10 12 16 18 20 22 rings
6 11 14 15 17 19 21 rings

> <PUBCHEM_HEAVY_ATOM_COUNT>
24

> <PUBCHEM_ATOM_DEF_STEREO_COUNT>
0

> <PUBCHEM_ATOM_UDEF_STEREO_COUNT>
0

> <PUBCHEM_BOND_DEF_STEREO_COUNT>
0

> <PUBCHEM_BOND_UDEF_STEREO_COUNT>
0

> <PUBCHEM_ISOTOPIC_ATOM_COUNT>
0

> <PUBCHEM_COMPONENT_COUNT>
1

> <PUBCHEM_CACTVS_TAUTO_COUNT>
22

> <PUBCHEM_CONFORMER_ID>
0364EA9900000003

> <PUBCHEM_MMFF94_ENERGY>
98.2085

> <PUBCHEM_FEATURE_SELFOVERLAP>
55.909

> <PUBCHEM_SHAPE_FINGERPRINT>
10 15 18339632447825723104
10319926 262 18336816546158250082
10366900 7 17313101968630152579
11045977 3 18409448102999568591
11405975 8 18411420613964230793
11545043 162 18260267468922773379
11646440 116 17989205932711050514
12107183 9 17466777191350753763
12166972 35 18060418036398029136
12403259 226 18410570729851525613
12507557 5 18273495663056421107
12596602 18 15502672510924785997
13402501 40 18338514144972540052
13583140 156 18413103948997257671
14341114 176 18410015450482672825
14420673 8 18336830784106970838
14466204 15 18337948974657929930
14866123 147 16974779745751974978
15196674 1 18410292540308349740
17492 89 18263365961430597019
17844677 252 18409737278351409613
18927931 339 18334019402185282535
19433438 28 18410292536161017155
21033648 29 17774421816218182842
21065198 57 18409729573549482115
21267235 1 18341620296039931838
21279426 13 18123187892501958222
21315764 371 15575833009598940425
21682296 61 18201445735551623030
21709351 56 18411974767518863391
221357 26 18341326717170173853
221490 88 18410857689342938480
23559900 14 18408598171763140137
3004659 81 18261115124465143734
335352 9 18412544284223936189
350125 39 18410578413400065373
351380 180 18411134749283016943
3545911 37 18409448046874798063
4073 2 18114468924023413778
4214541 1 18409449180872810103
508706 21 18189599597564050037
5104073 3 18411979178196952128
59755656 215 18335137536300468335
7495541 125 18408608088816246342
9709674 26 18263083378215102683

> <PUBCHEM_SHAPE_MULTIPOLES>
442.86
14.14
3
0.81
3.19
0.87
0.16
-5.52
0.51
-0.82
0.34
-0.04
0.21
1.77

> <PUBCHEM_SHAPE_SELFOVERLAP>
953.248

> <PUBCHEM_SHAPE_VOLUME>
244.2

> <PUBCHEM_COORDINATE_TYPE>
2
5
10

$$$$