44565422
  -OEChem-03242010103D

 62 66  0     1  0  0  0  0  0999 V2000
    8.3521    2.5052    0.2398 O   0  0  0  0  0  0  0  0  0  0  0  0
    9.8175    0.2243   -0.3652 O   0  0  0  0  0  0  0  0  0  0  0  0
   -9.7090    1.8462   -0.3815 O   0  0  0  0  0  0  0  0  0  0  0  0
  -10.4943   -0.4063   -0.0390 O   0  0  0  0  0  0  0  0  0  0  0  0
   -4.5976    1.4263   -0.9017 O   0  0  0  0  0  0  0  0  0  0  0  0
    3.6024   -1.3384   -0.0904 N   0  0  1  0  0  0  0  0  0  0  0  0
   -4.1701   -0.4363    0.4684 N   0  0  0  0  0  0  0  0  0  0  0  0
    4.2046   -2.2216   -1.0967 C   0  0  0  0  0  0  0  0  0  0  0  0
    4.1485    0.0244   -0.2169 C   0  0  0  0  0  0  0  0  0  0  0  0
    5.7001   -2.3928   -0.8108 C   0  0  0  0  0  0  0  0  0  0  0  0
    5.6596    0.0644   -0.2294 C   0  0  0  0  0  0  0  0  0  0  0  0
    6.4011   -1.0834   -0.5579 C   0  0  0  0  0  0  0  0  0  0  0  0
    2.1461   -1.3176   -0.2228 C   0  0  0  0  0  0  0  0  0  0  0  0
    1.5070   -0.4828    0.8875 C   0  0  0  0  0  0  0  0  0  0  0  0
    6.3287    1.2692    0.0253 C   0  0  0  0  0  0  0  0  0  0  0  0
    7.8001   -1.0192   -0.5903 C   0  0  0  0  0  0  0  0  0  0  0  0
    7.7215    1.3255   -0.0186 C   0  0  0  0  0  0  0  0  0  0  0  0
    8.4565    0.1821   -0.3236 C   0  0  0  0  0  0  0  0  0  0  0  0
    0.0033   -0.4712    0.7756 C   0  0  0  0  0  0  0  0  0  0  0  0
   -0.6323    0.5157    0.0220 C   0  0  0  0  0  0  0  0  0  0  0  0
   -0.7521   -1.4464    1.4265 C   0  0  0  0  0  0  0  0  0  0  0  0
   -2.0233    0.5274   -0.0804 C   0  0  0  0  0  0  0  0  0  0  0  0
   -2.1432   -1.4347    1.3242 C   0  0  0  0  0  0  0  0  0  0  0  0
   -2.7788   -0.4479    0.5707 C   0  0  0  0  0  0  0  0  0  0  0  0
    7.5266    3.6280    0.5437 C   0  0  0  0  0  0  0  0  0  0  0  0
   10.5116   -0.0549    0.8493 C   0  0  0  0  0  0  0  0  0  0  0  0
   -4.9758    0.4676   -0.2369 C   0  0  0  0  0  0  0  0  0  0  0  0
   -6.4367    0.1990   -0.1783 C   0  0  0  0  0  0  0  0  0  0  0  0
   -8.6874    0.9549   -0.2630 C   0  0  0  0  0  0  0  0  0  0  0  0
   -7.3416    1.2533   -0.3235 C   0  0  0  0  0  0  0  0  0  0  0  0
   -9.1359   -0.3313   -0.0674 C   0  0  0  0  0  0  0  0  0  0  0  0
   -6.8949   -1.1151    0.0217 C   0  0  0  0  0  0  0  0  0  0  0  0
   -8.2634   -1.3901    0.0787 C   0  0  0  0  0  0  0  0  0  0  0  0
  -10.8509    0.9767   -0.2389 C   0  0  0  0  0  0  0  0  0  0  0  0
    3.7388   -3.2144   -1.0700 H   0  0  0  0  0  0  0  0  0  0  0  0
    4.0548   -1.8197   -2.1080 H   0  0  0  0  0  0  0  0  0  0  0  0
    3.7867    0.5140   -1.1308 H   0  0  0  0  0  0  0  0  0  0  0  0
    3.8453    0.6246    0.6467 H   0  0  0  0  0  0  0  0  0  0  0  0
    5.8326   -3.0264    0.0755 H   0  0  0  0  0  0  0  0  0  0  0  0
    6.1653   -2.9054   -1.6612 H   0  0  0  0  0  0  0  0  0  0  0  0
    1.8447   -0.9369   -1.2083 H   0  0  0  0  0  0  0  0  0  0  0  0
    1.7610   -2.3435   -0.1516 H   0  0  0  0  0  0  0  0  0  0  0  0
    1.8312    0.5630    0.8644 H   0  0  0  0  0  0  0  0  0  0  0  0
    1.7978   -0.8692    1.8733 H   0  0  0  0  0  0  0  0  0  0  0  0
    5.7044    2.1278    0.2502 H   0  0  0  0  0  0  0  0  0  0  0  0
    8.3787   -1.9098   -0.8246 H   0  0  0  0  0  0  0  0  0  0  0  0
   -0.0536    1.2791   -0.4915 H   0  0  0  0  0  0  0  0  0  0  0  0
   -0.2681   -2.2213    2.0150 H   0  0  0  0  0  0  0  0  0  0  0  0
   -2.4401    1.3227   -0.6820 H   0  0  0  0  0  0  0  0  0  0  0  0
   -2.7190   -2.2014    1.8365 H   0  0  0  0  0  0  0  0  0  0  0  0
    6.8868    3.8999   -0.3028 H   0  0  0  0  0  0  0  0  0  0  0  0
    6.9566    3.4726    1.4660 H   0  0  0  0  0  0  0  0  0  0  0  0
    8.1933    4.4781    0.7228 H   0  0  0  0  0  0  0  0  0  0  0  0
   10.2397    0.6690    1.6240 H   0  0  0  0  0  0  0  0  0  0  0  0
   10.2924   -1.0715    1.1910 H   0  0  0  0  0  0  0  0  0  0  0  0
   11.5849    0.0256    0.6567 H   0  0  0  0  0  0  0  0  0  0  0  0
   -4.6278   -1.1626    1.0120 H   0  0  0  0  0  0  0  0  0  0  0  0
   -7.0120    2.2758   -0.4740 H   0  0  0  0  0  0  0  0  0  0  0  0
   -6.2162   -1.9596    0.0988 H   0  0  0  0  0  0  0  0  0  0  0  0
   -8.6214   -2.4030    0.2243 H   0  0  0  0  0  0  0  0  0  0  0  0
  -11.4436    1.3139    0.6192 H   0  0  0  0  0  0  0  0  0  0  0  0
  -11.4655    1.0536   -1.1432 H   0  0  0  0  0  0  0  0  0  0  0  0
  1 17  1  0  0  0  0
  1 25  1  0  0  0  0
  2 18  1  0  0  0  0
  2 26  1  0  0  0  0
  3 29  1  0  0  0  0
  3 34  1  0  0  0  0
  4 31  1  0  0  0  0
  4 34  1  0  0  0  0
  5 27  2  0  0  0  0
  6  8  1  0  0  0  0
  6  9  1  0  0  0  0
  6 13  1  0  0  0  0
  7 24  1  0  0  0  0
  7 27  1  0  0  0  0
  7 57  1  0  0  0  0
  8 10  1  0  0  0  0
  8 35  1  0  0  0  0
  8 36  1  0  0  0  0
  9 11  1  0  0  0  0
  9 37  1  0  0  0  0
  9 38  1  0  0  0  0
 10 12  1  0  0  0  0
 10 39  1  0  0  0  0
 10 40  1  0  0  0  0
 11 12  1  0  0  0  0
 11 15  2  0  0  0  0
 12 16  2  0  0  0  0
 13 14  1  0  0  0  0
 13 41  1  0  0  0  0
 13 42  1  0  0  0  0
 14 19  1  0  0  0  0
 14 43  1  0  0  0  0
 14 44  1  0  0  0  0
 15 17  1  0  0  0  0
 15 45  1  0  0  0  0
 16 18  1  0  0  0  0
 16 46  1  0  0  0  0
 17 18  2  0  0  0  0
 19 20  2  0  0  0  0
 19 21  1  0  0  0  0
 20 22  1  0  0  0  0
 20 47  1  0  0  0  0
 21 23  2  0  0  0  0
 21 48  1  0  0  0  0
 22 24  2  0  0  0  0
 22 49  1  0  0  0  0
 23 24  1  0  0  0  0
 23 50  1  0  0  0  0
 25 51  1  0  0  0  0
 25 52  1  0  0  0  0
 25 53  1  0  0  0  0
 26 54  1  0  0  0  0
 26 55  1  0  0  0  0
 26 56  1  0  0  0  0
 27 28  1  0  0  0  0
 28 30  2  0  0  0  0
 28 32  1  0  0  0  0
 29 30  1  0  0  0  0
 29 31  2  0  0  0  0
 30 58  1  0  0  0  0
 31 33  1  0  0  0  0
 32 33  2  0  0  0  0
 32 59  1  0  0  0  0
 33 60  1  0  0  0  0
 34 61  1  0  0  0  0
 34 62  1  0  0  0  0
M  END
> <PUBCHEM_COMPOUND_CID>
44565422

> <PUBCHEM_CONFORMER_RMSD>
1

> <PUBCHEM_CONFORMER_DIVERSEORDER>
9
65
93
102
3
25
38
1
103
96
85
46
68
52
12
99
55
101
18
42
57
87
84
100
45
32
51
15
79
16
97
23
60
92
98
95
13
90
4
8
89
58
47
48
22
67
59
56
91
2
54
70
10
17
94
73
64
28
77
7
5
86
72
37
82
36
33
14
41
88
19
61
6
40
26
62
80
76
27
78
50
63
83
29
71
74
81
49
44
39
53
21
75
69
30
20
11
31
43
34
24
66
35

> <PUBCHEM_MMFF94_PARTIAL_CHARGES>
44
1 -0.36
10 0.14
11 -0.14
12 -0.14
13 0.27
14 0.14
15 -0.15
16 -0.15
17 0.08
18 0.08
19 -0.14
2 -0.36
20 -0.15
21 -0.15
22 -0.15
23 -0.15
24 0.12
25 0.28
26 0.28
27 0.54
28 0.09
29 0.08
3 -0.36
30 -0.15
31 0.08
32 -0.15
33 -0.15
34 0.56
4 -0.36
45 0.15
46 0.15
47 0.15
48 0.15
49 0.15
5 -0.57
50 0.15
57 0.37
58 0.15
59 0.15
6 -0.81
60 0.15
7 -0.55
8 0.27
9 0.41

> <PUBCHEM_EFFECTIVE_ROTOR_COUNT>
9.4

> <PUBCHEM_PHARMACOPHORE_FEATURES>
12
1 1 acceptor
1 2 acceptor
1 3 acceptor
1 4 acceptor
1 5 acceptor
1 6 cation
1 7 donor
5 3 4 29 31 34 rings
6 11 12 15 16 17 18 rings
6 19 20 21 22 23 24 rings
6 28 29 30 31 32 33 rings
6 6 8 9 10 11 12 rings

> <PUBCHEM_HEAVY_ATOM_COUNT>
34

> <PUBCHEM_ATOM_DEF_STEREO_COUNT>
0

> <PUBCHEM_ATOM_UDEF_STEREO_COUNT>
0

> <PUBCHEM_BOND_DEF_STEREO_COUNT>
0

> <PUBCHEM_BOND_UDEF_STEREO_COUNT>
0

> <PUBCHEM_ISOTOPIC_ATOM_COUNT>
0

> <PUBCHEM_COMPONENT_COUNT>
1

> <PUBCHEM_CACTVS_TAUTO_COUNT>
2

> <PUBCHEM_CONFORMER_ID>
02A803AE00000009

> <PUBCHEM_MMFF94_ENERGY>
118.1052

> <PUBCHEM_FEATURE_SELFOVERLAP>
61.08

> <PUBCHEM_SHAPE_FINGERPRINT>
10076449 9 15482672368872389211
10533779 47 8502375563786223141
10883706 142 15502376725412333803
11061554 47 17894346666157126077
11135609 127 18336549430217721332
11315181 36 18272936008561403259
11409948 35 17096078084379298170
11443803 9 17313103051205030963
11456790 92 13262398860353470431
11607047 141 17458894961292359760
11672396 167 18128540350025977134
11693224 71 18187080654974376594
12013929 2 18260832584468386410
12013929 94 18272369811592328031
12082328 90 18059858308187069989
12144603 126 17775004583425059559
12522641 33 18341896273084548631
12539745 222 8430325640861066255
12664476 115 18113898265073045076
12758862 11 18334861645123712171
12758862 56 13470392380491286647
131240 100 18337392738434874203
13811026 1 18260271862442019954
14040221 8 16917073227057128577
14118638 360 15338848516490926750
14142895 15 18343020021037767198
14251764 46 17385724694649562451
14344974 52 18410291441524579355
14359421 15 14491297638013366592
150020 25 18411423911993166363
15247644 1 15195567892089385668
15347591 1 17826223000775210223
15510794 2 18335143094267769659
15530121 191 18408877430321630877
15840311 113 18412267246882190604
15890870 6 18413392051662302758
16728433 110 16845566526292293307
1754911 235 18410008836844778479
17686467 74 18113338622777152277
1818759 1 13830130598966352479
20105231 36 10592050150562690372
20812841 46 18113613475177796818
21150785 3 17918275350438567019
21362267 2 18340192077000596437
21362267 313 18264766554291674227
22164985 6 18186798063574791471
232437 2 18409730655464567870
23528521 120 18409442605910947925
24771293 8 18040437655564409989
24893992 56 15647062590224867905
249057 3 16988838406530368539
395649 100 18114744932509362219
44280117 145 18338518651554198663
45270241 37 18343305851502063750
4874694 18 18409730659886876314
5028188 123 18272083904229953863
5219985 9 15554445180845919891
5470011 282 18131633365710974391
5758199 1 17458345213710027899
6201320 215 12757412944700738439
67123 10 18412826885014892943

> <PUBCHEM_SHAPE_MULTIPOLES>
660.4
43.58
2.27
0.93
30.56
1.16
-0.15
15.21
4.68
-4.41
0.04
-0.39
-0.27
2.23

> <PUBCHEM_SHAPE_SELFOVERLAP>
1444.047

> <PUBCHEM_SHAPE_VOLUME>
358.2

> <PUBCHEM_COORDINATE_TYPE>
2
5
10

$$$$