44451563
  -OEChem-03242010103D

 61 64  0     1  0  0  0  0  0999 V2000
    7.8703    2.4051    0.0342 O   0  0  0  0  0  0  0  0  0  0  0  0
    9.2242    0.0020   -0.2946 O   0  0  0  0  0  0  0  0  0  0  0  0
   -5.1991    1.8472   -0.5074 O   0  0  0  0  0  0  0  0  0  0  0  0
    2.9276   -1.2006   -0.0677 N   0  0  1  0  0  0  0  0  0  0  0  0
   -4.8516   -0.3013    0.3826 N   0  0  0  0  0  0  0  0  0  0  0  0
  -11.2186   -0.1742   -0.3755 N   0  0  0  0  0  0  0  0  0  0  0  0
    3.5074   -2.2104   -0.9618 C   0  0  0  0  0  0  0  0  0  0  0  0
    3.5509    0.1125   -0.3106 C   0  0  0  0  0  0  0  0  0  0  0  0
    4.9828   -2.4294   -0.6123 C   0  0  0  0  0  0  0  0  0  0  0  0
    5.0615    0.0725   -0.2782 C   0  0  0  0  0  0  0  0  0  0  0  0
    5.7476   -1.1394   -0.4675 C   0  0  0  0  0  0  0  0  0  0  0  0
    1.4786   -1.1176   -0.2485 C   0  0  0  0  0  0  0  0  0  0  0  0
    0.8008   -0.5659    1.0060 C   0  0  0  0  0  0  0  0  0  0  0  0
    5.7886    1.2605   -0.1224 C   0  0  0  0  0  0  0  0  0  0  0  0
    7.1484   -1.1514   -0.4608 C   0  0  0  0  0  0  0  0  0  0  0  0
    7.1832    1.2397   -0.1265 C   0  0  0  0  0  0  0  0  0  0  0  0
    7.8622    0.0349   -0.2932 C   0  0  0  0  0  0  0  0  0  0  0  0
   -0.6964   -0.4959    0.8410 C   0  0  0  0  0  0  0  0  0  0  0  0
   -1.2880    0.6577    0.3260 C   0  0  0  0  0  0  0  0  0  0  0  0
   -1.4898   -1.5845    1.2029 C   0  0  0  0  0  0  0  0  0  0  0  0
   -2.6730    0.7228    0.1732 C   0  0  0  0  0  0  0  0  0  0  0  0
   -2.8747   -1.5195    1.0502 C   0  0  0  0  0  0  0  0  0  0  0  0
   -3.4663   -0.3661    0.5354 C   0  0  0  0  0  0  0  0  0  0  0  0
    7.0998    3.5941    0.1988 C   0  0  0  0  0  0  0  0  0  0  0  0
    9.8688   -0.1895    0.9633 C   0  0  0  0  0  0  0  0  0  0  0  0
   -5.6160    0.7635   -0.1128 C   0  0  0  0  0  0  0  0  0  0  0  0
   -7.0806    0.5189   -0.1809 C   0  0  0  0  0  0  0  0  0  0  0  0
   -7.9716    1.5894   -0.1024 C   0  0  0  0  0  0  0  0  0  0  0  0
   -7.5640   -0.7816   -0.3242 C   0  0  0  0  0  0  0  0  0  0  0  0
   -9.3458    1.3593   -0.1671 C   0  0  0  0  0  0  0  0  0  0  0  0
   -8.9381   -1.0118   -0.3889 C   0  0  0  0  0  0  0  0  0  0  0  0
   -9.8290    0.0586   -0.3103 C   0  0  0  0  0  0  0  0  0  0  0  0
    3.4048   -1.9056   -2.0121 H   0  0  0  0  0  0  0  0  0  0  0  0
    2.9929   -3.1729   -0.8510 H   0  0  0  0  0  0  0  0  0  0  0  0
    3.2181    0.8163    0.4606 H   0  0  0  0  0  0  0  0  0  0  0  0
    3.2519    0.5139   -1.2884 H   0  0  0  0  0  0  0  0  0  0  0  0
    5.4421   -3.0482   -1.3924 H   0  0  0  0  0  0  0  0  0  0  0  0
    5.0566   -2.9768    0.3362 H   0  0  0  0  0  0  0  0  0  0  0  0
    1.2110   -0.5337   -1.1394 H   0  0  0  0  0  0  0  0  0  0  0  0
    1.0680   -2.1227   -0.4182 H   0  0  0  0  0  0  0  0  0  0  0  0
    1.1716    0.4366    1.2515 H   0  0  0  0  0  0  0  0  0  0  0  0
    1.0418   -1.1928    1.8749 H   0  0  0  0  0  0  0  0  0  0  0  0
    5.2061    2.1683   -0.0033 H   0  0  0  0  0  0  0  0  0  0  0  0
    7.6833   -2.0899   -0.5870 H   0  0  0  0  0  0  0  0  0  0  0  0
   -0.6789    1.5108    0.0388 H   0  0  0  0  0  0  0  0  0  0  0  0
   -1.0403   -2.4893    1.6033 H   0  0  0  0  0  0  0  0  0  0  0  0
   -3.0547    1.6490   -0.2322 H   0  0  0  0  0  0  0  0  0  0  0  0
   -3.4804   -2.3759    1.3359 H   0  0  0  0  0  0  0  0  0  0  0  0
    7.8069    4.4222    0.3143 H   0  0  0  0  0  0  0  0  0  0  0  0
    6.4974    3.5620    1.1132 H   0  0  0  0  0  0  0  0  0  0  0  0
    6.4988    3.8123   -0.6906 H   0  0  0  0  0  0  0  0  0  0  0  0
   10.9497   -0.1846    0.7985 H   0  0  0  0  0  0  0  0  0  0  0  0
    9.5850   -1.1537    1.3966 H   0  0  0  0  0  0  0  0  0  0  0  0
    9.6163    0.6218    1.6534 H   0  0  0  0  0  0  0  0  0  0  0  0
   -5.3405   -1.1291    0.7116 H   0  0  0  0  0  0  0  0  0  0  0  0
   -7.6152    2.6095    0.0143 H   0  0  0  0  0  0  0  0  0  0  0  0
   -6.9081   -1.6408   -0.4269 H   0  0  0  0  0  0  0  0  0  0  0  0
  -10.0301    2.2016   -0.1036 H   0  0  0  0  0  0  0  0  0  0  0  0
   -9.3028   -2.0289   -0.5087 H   0  0  0  0  0  0  0  0  0  0  0  0
  -11.8649    0.6015   -0.3190 H   0  0  0  0  0  0  0  0  0  0  0  0
  -11.5696   -1.1169   -0.4797 H   0  0  0  0  0  0  0  0  0  0  0  0
  1 16  1  0  0  0  0
  1 24  1  0  0  0  0
  2 17  1  0  0  0  0
  2 25  1  0  0  0  0
  3 26  2  0  0  0  0
  4  7  1  0  0  0  0
  4  8  1  0  0  0  0
  4 12  1  0  0  0  0
  5 23  1  0  0  0  0
  5 26  1  0  0  0  0
  5 55  1  0  0  0  0
  6 32  1  0  0  0  0
  6 60  1  0  0  0  0
  6 61  1  0  0  0  0
  7  9  1  0  0  0  0
  7 33  1  0  0  0  0
  7 34  1  0  0  0  0
  8 10  1  0  0  0  0
  8 35  1  0  0  0  0
  8 36  1  0  0  0  0
  9 11  1  0  0  0  0
  9 37  1  0  0  0  0
  9 38  1  0  0  0  0
 10 11  1  0  0  0  0
 10 14  2  0  0  0  0
 11 15  2  0  0  0  0
 12 13  1  0  0  0  0
 12 39  1  0  0  0  0
 12 40  1  0  0  0  0
 13 18  1  0  0  0  0
 13 41  1  0  0  0  0
 13 42  1  0  0  0  0
 14 16  1  0  0  0  0
 14 43  1  0  0  0  0
 15 17  1  0  0  0  0
 15 44  1  0  0  0  0
 16 17  2  0  0  0  0
 18 19  2  0  0  0  0
 18 20  1  0  0  0  0
 19 21  1  0  0  0  0
 19 45  1  0  0  0  0
 20 22  2  0  0  0  0
 20 46  1  0  0  0  0
 21 23  2  0  0  0  0
 21 47  1  0  0  0  0
 22 23  1  0  0  0  0
 22 48  1  0  0  0  0
 24 49  1  0  0  0  0
 24 50  1  0  0  0  0
 24 51  1  0  0  0  0
 25 52  1  0  0  0  0
 25 53  1  0  0  0  0
 25 54  1  0  0  0  0
 26 27  1  0  0  0  0
 27 28  2  0  0  0  0
 27 29  1  0  0  0  0
 28 30  1  0  0  0  0
 28 56  1  0  0  0  0
 29 31  2  0  0  0  0
 29 57  1  0  0  0  0
 30 32  2  0  0  0  0
 30 58  1  0  0  0  0
 31 32  1  0  0  0  0
 31 59  1  0  0  0  0
M  END
> <PUBCHEM_COMPOUND_CID>
44451563

> <PUBCHEM_CONFORMER_RMSD>
1

> <PUBCHEM_CONFORMER_DIVERSEORDER>
4
28
36
32
42
1
45
43
34
40
9
33
14
24
3
16
39
6
25
2
30
35
10
7
11
20
44
17
8
27
21
37
41
31
38
19
5
18
12
26
22
29
46
23
13
15

> <PUBCHEM_MMFF94_PARTIAL_CHARGES>
45
1 -0.36
10 -0.14
11 -0.14
12 0.27
13 0.14
14 -0.15
15 -0.15
16 0.08
17 0.08
18 -0.14
19 -0.15
2 -0.36
20 -0.15
21 -0.15
22 -0.15
23 0.12
24 0.28
25 0.28
26 0.54
27 0.09
28 -0.15
29 -0.15
3 -0.57
30 -0.15
31 -0.15
32 0.1
4 -0.81
43 0.15
44 0.15
45 0.15
46 0.15
47 0.15
48 0.15
5 -0.55
55 0.37
56 0.15
57 0.15
58 0.15
59 0.15
6 -0.9
60 0.4
61 0.4
7 0.27
8 0.41
9 0.14

> <PUBCHEM_EFFECTIVE_ROTOR_COUNT>
8.8

> <PUBCHEM_PHARMACOPHORE_FEATURES>
11
1 1 acceptor
1 2 acceptor
1 3 acceptor
1 4 cation
1 5 donor
1 6 cation
1 6 donor
6 10 11 14 15 16 17 rings
6 18 19 20 21 22 23 rings
6 27 28 29 30 31 32 rings
6 4 7 8 9 10 11 rings

> <PUBCHEM_HEAVY_ATOM_COUNT>
32

> <PUBCHEM_ATOM_DEF_STEREO_COUNT>
0

> <PUBCHEM_ATOM_UDEF_STEREO_COUNT>
0

> <PUBCHEM_BOND_DEF_STEREO_COUNT>
0

> <PUBCHEM_BOND_UDEF_STEREO_COUNT>
0

> <PUBCHEM_ISOTOPIC_ATOM_COUNT>
0

> <PUBCHEM_COMPONENT_COUNT>
1

> <PUBCHEM_CACTVS_TAUTO_COUNT>
5

> <PUBCHEM_CONFORMER_ID>
02A646EB00000004

> <PUBCHEM_MMFF94_ENERGY>
122.7796

> <PUBCHEM_FEATURE_SELFOVERLAP>
55.847

> <PUBCHEM_SHAPE_FINGERPRINT>
10076449 9 15985104102936806489
10162869 55 18202563978011097042
10299344 5 17703789202836451879
10533779 1 16772375436007079144
10533779 47 8862945013484911221
10835480 77 18411142458986742384
10883706 142 15864070971174417539
11061554 47 18040711467766063965
11135609 127 18341049718441052440
11315181 36 18201441360187249529
11409948 35 16805876288063064714
11443803 9 17385722500359527907
11456790 92 13190342361743069631
11693224 71 18186799171133398778
12013929 2 18260269630230521258
12013929 94 18272932757319295415
12082328 90 17917712345568488213
12089408 11 16702027434949122547
12522641 33 18342176640291980327
12664476 115 18187081759297377476
12758862 11 18334580165946992713
13811026 1 18334298677484103081
14118638 360 15195014803465524183
14142895 15 18342175596097157173
14251764 46 18040152916301439731
14344974 52 18409165546092071555
150020 25 18410860962050268579
15247644 1 15482674563484529742
15510794 2 18260271854364288963
15840311 113 18411984672420375316
15890870 6 18341053000064715236
16120349 18 18413107273475835760
16728433 110 16845285051447438441
1754911 235 18408601453555861549
17686467 74 18113339718072986053
1818759 1 13398629464000768389
20105231 36 12607405481525235053
20157964 124 18341616997631610110
20554085 129 16877941646420226952
20812841 46 18040711451846210890
21150785 3 17989207040722999963
21267235 1 11095882657302239826
21362267 2 18337377331839648469
21362857 166 16558485097765406196
21585481 151 11455880383141503509
21867018 265 18060134388864569311
232437 2 18412545401269016567
23528521 120 18335976546199700837
24771293 8 18186806838377522093
395649 100 18261110816634460587
44880568 143 17987246521328530325
4625314 4 18343022207535440574
4874694 18 18409729556217437866
5028188 123 18202560680367633927
5470011 282 18060701663121732471
6057620 51 18060140908276466051
6201320 215 12540959791490652951
67123 10 18413388735646538591

> <PUBCHEM_SHAPE_MULTIPOLES>
625.99
40.03
2.3
0.88
35.44
1.2
-0.14
11.94
5.35
-4.38
0.14
-0.21
-0.27
1.08

> <PUBCHEM_SHAPE_SELFOVERLAP>
1349.181

> <PUBCHEM_SHAPE_VOLUME>
344.5

> <PUBCHEM_COORDINATE_TYPE>
2
5
10

$$$$