44565439
  -OEChem-03242010103D

 73 76  0     1  0  0  0  0  0999 V2000
    8.1470    2.1606    2.3219 O   0  0  0  0  0  0  0  0  0  0  0  0
    7.4110    4.0305    0.4041 O   0  0  0  0  0  0  0  0  0  0  0  0
   -2.6454   -2.7120   -1.0021 O   0  0  0  0  0  0  0  0  0  0  0  0
   -7.4739    3.0819   -1.7487 O   0  0  0  0  0  0  0  0  0  0  0  0
   -9.1151    2.5496    0.4302 O   0  0  0  0  0  0  0  0  0  0  0  0
   -6.9085   -2.3388    1.3644 O   0  5  0  0  0  0  0  0  0  0  0  0
   -5.6603   -1.0422    2.6213 O   0  0  0  0  0  0  0  0  0  0  0  0
    4.8541   -1.6394   -1.1658 N   0  0  2  0  0  0  0  0  0  0  0  0
   -1.2786   -1.3736    0.3678 N   0  0  0  0  0  0  0  0  0  0  0  0
   -6.3935   -1.2263    1.6223 N   0  3  0  0  0  0  0  0  0  0  0  0
    5.1376   -0.9508   -2.4310 C   0  0  0  0  0  0  0  0  0  0  0  0
    5.9528   -1.4191   -0.2088 C   0  0  0  0  0  0  0  0  0  0  0  0
    5.1393    0.5652   -2.2097 C   0  0  0  0  0  0  0  0  0  0  0  0
    6.3124    0.0390   -0.0363 C   0  0  0  0  0  0  0  0  0  0  0  0
    5.9611    0.9816   -1.0178 C   0  0  0  0  0  0  0  0  0  0  0  0
    4.6520   -3.0707   -1.3880 C   0  0  0  0  0  0  0  0  0  0  0  0
    3.8821   -3.7019   -0.2275 C   0  0  0  0  0  0  0  0  0  0  0  0
    7.0582    0.4475    1.0778 C   0  0  0  0  0  0  0  0  0  0  0  0
    6.3280    2.3236   -0.8528 C   0  0  0  0  0  0  0  0  0  0  0  0
    7.4270    1.7841    1.2284 C   0  0  0  0  0  0  0  0  0  0  0  0
    7.0603    2.7215    0.2653 C   0  0  0  0  0  0  0  0  0  0  0  0
    2.5150   -3.0855   -0.0697 C   0  0  0  0  0  0  0  0  0  0  0  0
    2.3418   -1.9750    0.7566 C   0  0  0  0  0  0  0  0  0  0  0  0
    1.4235   -3.6256   -0.7501 C   0  0  0  0  0  0  0  0  0  0  0  0
    1.0773   -1.4044    0.9022 C   0  0  0  0  0  0  0  0  0  0  0  0
    0.1591   -3.0551   -0.6042 C   0  0  0  0  0  0  0  0  0  0  0  0
   -0.0142   -1.9446    0.2218 C   0  0  0  0  0  0  0  0  0  0  0  0
    8.4815    1.1396    3.2601 C   0  0  0  0  0  0  0  0  0  0  0  0
    6.9962    4.9252   -0.6264 C   0  0  0  0  0  0  0  0  0  0  0  0
   -2.4817   -1.7745   -0.2302 C   0  0  0  0  0  0  0  0  0  0  0  0
   -3.6216   -0.8996    0.1828 C   0  0  0  0  0  0  0  0  0  0  0  0
   -5.8270    0.1354   -0.3450 C   0  0  0  0  0  0  0  0  0  0  0  0
   -4.6513   -0.6980   -0.6529 C   0  0  0  0  0  0  0  0  0  0  0  0
   -6.6508   -0.1317    0.7486 C   0  0  0  0  0  0  0  0  0  0  0  0
   -6.1071    1.2159   -1.1817 C   0  0  0  0  0  0  0  0  0  0  0  0
   -7.2107    2.0295   -0.9247 C   0  0  0  0  0  0  0  0  0  0  0  0
   -8.0345    1.7623    0.1689 C   0  0  0  0  0  0  0  0  0  0  0  0
   -7.7546    0.6817    1.0055 C   0  0  0  0  0  0  0  0  0  0  0  0
   -6.5830    3.2858   -2.8438 C   0  0  0  0  0  0  0  0  0  0  0  0
   -9.9057    2.2082    1.5673 C   0  0  0  0  0  0  0  0  0  0  0  0
    6.1014   -1.2773   -2.8448 H   0  0  0  0  0  0  0  0  0  0  0  0
    4.3689   -1.1779   -3.1799 H   0  0  0  0  0  0  0  0  0  0  0  0
    5.6650   -1.8079    0.7741 H   0  0  0  0  0  0  0  0  0  0  0  0
    6.8615   -1.9472   -0.5283 H   0  0  0  0  0  0  0  0  0  0  0  0
    5.5215    1.0525   -3.1146 H   0  0  0  0  0  0  0  0  0  0  0  0
    4.1101    0.9122   -2.0512 H   0  0  0  0  0  0  0  0  0  0  0  0
    5.6027   -3.5965   -1.5438 H   0  0  0  0  0  0  0  0  0  0  0  0
    4.0614   -3.2294   -2.3007 H   0  0  0  0  0  0  0  0  0  0  0  0
    3.7711   -4.7775   -0.4180 H   0  0  0  0  0  0  0  0  0  0  0  0
    4.4355   -3.6370    0.7166 H   0  0  0  0  0  0  0  0  0  0  0  0
    7.3207   -0.3274    1.7907 H   0  0  0  0  0  0  0  0  0  0  0  0
    6.0096    3.0077   -1.6326 H   0  0  0  0  0  0  0  0  0  0  0  0
    3.1790   -1.5475    1.3014 H   0  0  0  0  0  0  0  0  0  0  0  0
    1.5473   -4.4895   -1.3980 H   0  0  0  0  0  0  0  0  0  0  0  0
    0.9568   -0.5403    1.5507 H   0  0  0  0  0  0  0  0  0  0  0  0
   -0.6351   -3.5294   -1.1633 H   0  0  0  0  0  0  0  0  0  0  0  0
    7.5876    0.7041    3.7195 H   0  0  0  0  0  0  0  0  0  0  0  0
    9.1352    0.3812    2.8157 H   0  0  0  0  0  0  0  0  0  0  0  0
    9.0510    1.6163    4.0648 H   0  0  0  0  0  0  0  0  0  0  0  0
    7.4533    4.6724   -1.5892 H   0  0  0  0  0  0  0  0  0  0  0  0
    5.9046    4.9936   -0.6868 H   0  0  0  0  0  0  0  0  0  0  0  0
    7.3614    5.9210   -0.3541 H   0  0  0  0  0  0  0  0  0  0  0  0
   -1.3154   -0.5657    0.9863 H   0  0  0  0  0  0  0  0  0  0  0  0
   -3.5558   -0.4071    1.1468 H   0  0  0  0  0  0  0  0  0  0  0  0
   -4.6642   -1.1584   -1.6380 H   0  0  0  0  0  0  0  0  0  0  0  0
   -5.4333    1.3783   -2.0172 H   0  0  0  0  0  0  0  0  0  0  0  0
   -8.3604    0.4273    1.8696 H   0  0  0  0  0  0  0  0  0  0  0  0
   -5.5690    3.5197   -2.5016 H   0  0  0  0  0  0  0  0  0  0  0  0
   -6.6045    2.4441   -3.5444 H   0  0  0  0  0  0  0  0  0  0  0  0
   -6.9425    4.1632   -3.3917 H   0  0  0  0  0  0  0  0  0  0  0  0
  -10.3704    1.2226    1.4551 H   0  0  0  0  0  0  0  0  0  0  0  0
   -9.3350    2.2981    2.4979 H   0  0  0  0  0  0  0  0  0  0  0  0
  -10.7202    2.9379    1.6235 H   0  0  0  0  0  0  0  0  0  0  0  0
  1 20  1  0  0  0  0
  1 28  1  0  0  0  0
  2 21  1  0  0  0  0
  2 29  1  0  0  0  0
  3 30  2  0  0  0  0
  4 36  1  0  0  0  0
  4 39  1  0  0  0  0
  5 37  1  0  0  0  0
  5 40  1  0  0  0  0
  6 10  1  0  0  0  0
  7 10  2  0  0  0  0
  8 11  1  0  0  0  0
  8 12  1  0  0  0  0
  8 16  1  0  0  0  0
  9 27  1  0  0  0  0
  9 30  1  0  0  0  0
  9 63  1  0  0  0  0
 10 34  1  0  0  0  0
 11 13  1  0  0  0  0
 11 41  1  0  0  0  0
 11 42  1  0  0  0  0
 12 14  1  0  0  0  0
 12 43  1  0  0  0  0
 12 44  1  0  0  0  0
 13 15  1  0  0  0  0
 13 45  1  0  0  0  0
 13 46  1  0  0  0  0
 14 15  1  0  0  0  0
 14 18  2  0  0  0  0
 15 19  2  0  0  0  0
 16 17  1  0  0  0  0
 16 47  1  0  0  0  0
 16 48  1  0  0  0  0
 17 22  1  0  0  0  0
 17 49  1  0  0  0  0
 17 50  1  0  0  0  0
 18 20  1  0  0  0  0
 18 51  1  0  0  0  0
 19 21  1  0  0  0  0
 19 52  1  0  0  0  0
 20 21  2  0  0  0  0
 22 23  2  0  0  0  0
 22 24  1  0  0  0  0
 23 25  1  0  0  0  0
 23 53  1  0  0  0  0
 24 26  2  0  0  0  0
 24 54  1  0  0  0  0
 25 27  2  0  0  0  0
 25 55  1  0  0  0  0
 26 27  1  0  0  0  0
 26 56  1  0  0  0  0
 28 57  1  0  0  0  0
 28 58  1  0  0  0  0
 28 59  1  0  0  0  0
 29 60  1  0  0  0  0
 29 61  1  0  0  0  0
 29 62  1  0  0  0  0
 30 31  1  0  0  0  0
 31 33  2  0  0  0  0
 31 64  1  0  0  0  0
 32 33  1  0  0  0  0
 32 34  1  0  0  0  0
 32 35  2  0  0  0  0
 33 65  1  0  0  0  0
 34 38  2  0  0  0  0
 35 36  1  0  0  0  0
 35 66  1  0  0  0  0
 36 37  2  0  0  0  0
 37 38  1  0  0  0  0
 38 67  1  0  0  0  0
 39 68  1  0  0  0  0
 39 69  1  0  0  0  0
 39 70  1  0  0  0  0
 40 71  1  0  0  0  0
 40 72  1  0  0  0  0
 40 73  1  0  0  0  0
M  CHG  2   6  -1  10   1
M  END
> <PUBCHEM_COMPOUND_CID>
44565439

> <PUBCHEM_CONFORMER_RMSD>
1.2

> <PUBCHEM_CONFORMER_DIVERSEORDER>
28
13
80
73
81
32
18
41
60
19
56
53
69
22
48
79
1
44
37
15
47
31
66
71
72
33
54
65
61
38
64
4
68
55
75
17
3
21
11
59
35
83
57
29
30
70
46
58
26
51
10
27
45
42
25
9
40
50
77
7
20
63
76
36
2
39
82
67
5
12
62
74
52
23
16
49
34
6
24
14
8
43
78

> <PUBCHEM_MMFF94_PARTIAL_CHARGES>
51
1 -0.36
10 0.91
11 0.27
12 0.41
13 0.14
14 -0.14
15 -0.14
16 0.27
17 0.14
18 -0.15
19 -0.15
2 -0.36
20 0.08
21 0.08
22 -0.14
23 -0.15
24 -0.15
25 -0.15
26 -0.15
27 0.12
28 0.28
29 0.28
3 -0.57
30 0.62
31 -0.14
32 0.03
33 -0.18
34 0.13
35 -0.15
36 0.08
37 0.08
38 -0.15
39 0.28
4 -0.36
40 0.28
5 -0.36
51 0.15
52 0.15
53 0.15
54 0.15
55 0.15
56 0.15
6 -0.52
63 0.37
64 0.15
65 0.15
66 0.15
67 0.15
7 -0.52
8 -0.81
9 -0.55

> <PUBCHEM_EFFECTIVE_ROTOR_COUNT>
12.8

> <PUBCHEM_PHARMACOPHORE_FEATURES>
14
1 1 acceptor
1 2 acceptor
1 3 acceptor
1 4 acceptor
1 5 acceptor
1 6 acceptor
1 6 anion
1 7 acceptor
1 8 cation
1 9 donor
6 14 15 18 19 20 21 rings
6 22 23 24 25 26 27 rings
6 32 34 35 36 37 38 rings
6 8 11 12 13 14 15 rings

> <PUBCHEM_HEAVY_ATOM_COUNT>
40

> <PUBCHEM_ATOM_DEF_STEREO_COUNT>
0

> <PUBCHEM_ATOM_UDEF_STEREO_COUNT>
0

> <PUBCHEM_BOND_DEF_STEREO_COUNT>
1

> <PUBCHEM_BOND_UDEF_STEREO_COUNT>
0

> <PUBCHEM_ISOTOPIC_ATOM_COUNT>
0

> <PUBCHEM_COMPONENT_COUNT>
1

> <PUBCHEM_CACTVS_TAUTO_COUNT>
2

> <PUBCHEM_CONFORMER_ID>
02A803BF0000001C

> <PUBCHEM_MMFF94_ENERGY>
160.518

> <PUBCHEM_FEATURE_SELFOVERLAP>
71.163

> <PUBCHEM_SHAPE_FINGERPRINT>
10533779 1 17988350560241902504
10673678 19 18413114944013724334
11007060 377 18334024899875693411
11135609 127 18341890775668561790
11211813 74 18343023250995728281
11421887 103 18053653957351528600
11578821 258 18341615876487351689
12539747 72 18187365475588186226
12888983 3 18187640250515888685
13782708 43 9727629493019799251
14268113 111 18114174194773022765
14904525 67 18188761756976759269
15183329 4 15841550730827675295
15664458 139 17775276201267417704
15840311 113 18340211803842656326
16991971 28 9151174276743798328
16994733 274 18408041831464201203
17686467 74 18259992587786621747
17852330 31 17312819368762998946
19302320 297 17894635872475772772
19304671 126 17917718989729914974
2026 5 9007052453719469385
20501277 180 17775284954421687297
21033648 29 18186242818597708435
21362857 166 11671795840938022700
23522609 53 17130731412734838011
25269216 80 16629950140545003255
3525247 18 17912077562903911216
3534868 343 17130157394914685374
3711267 37 18058737892974836825
3918712 181 18271525407662344088
406291 66 7925916975781942652
4403749 210 18411421735384400459
44317340 157 18410296865594242054
45270241 37 18130796611566592287
4616759 239 17095533894505006201
49967989 163 15410310244911337935
5109719 28 18335712684118850098
57359948 33 17561361747982253466
6289498 60 18335421296236749592

> <PUBCHEM_SHAPE_MULTIPOLES>
767.15
35.55
5.45
2.26
34.43
2.11
-0.39
39.51
-10.24
-6.55
1.48
-1.16
1.18
4.98

> <PUBCHEM_SHAPE_SELFOVERLAP>
1643.908

> <PUBCHEM_SHAPE_VOLUME>
424

> <PUBCHEM_COORDINATE_TYPE>
2
5
10

$$$$