49
 OpenBabel03292021463D

201201  0  0  1  0  0  0  0  0999 V2000
    2.2016   -4.8239   -1.7634 C   0  0  0  0  0  0  0  0  0  0  0  0
    3.4963   -4.1760   -2.1352 C   0  0  0  0  0  0  0  0  0  0  0  0
    4.5009   -4.8337   -2.7313 C   0  0  0  0  0  0  0  0  0  0  0  0
    5.8487   -4.2970   -3.1450 C   0  0  0  0  0  0  0  0  0  0  0  0
    6.0768   -2.7753   -3.3306 C   0  0  1  0  0  0  0  0  0  0  0  0
    4.9806   -2.2290   -4.3023 C   0  0  0  0  0  0  0  0  0  0  0  0
    6.3628   -1.8460   -2.0389 C   0  0  1  0  0  0  0  0  0  0  0  0
    6.3337   -0.4834   -2.5386 O   0  0  0  0  0  0  0  0  0  0  0  0
    7.7259   -1.8638   -1.0587 C   0  0  1  0  0  0  0  0  0  0  0  0
    7.6124   -2.9771    0.1940 C   0  0  0  0  0  0  0  0  0  0  0  0
    7.2378   -4.1116   -0.1936 O   0  0  0  0  0  0  0  0  0  0  0  0
    7.8305   -3.0492    1.5596 N   0  0  0  0  0  0  0  0  0  0  0  0
    8.1570   -2.6989    3.1846 C   0  0  1  0  0  0  0  0  0  0  0  0
    7.0595   -1.8931    3.9856 C   0  0  1  0  0  0  0  0  0  0  0  0
    5.7617   -2.6777    4.1572 C   0  0  0  0  0  0  0  0  0  0  0  0
    7.4660   -1.5471    5.3316 O   0  0  0  0  0  0  0  0  0  0  0  0
    9.3845   -2.9234    4.2766 C   0  0  0  0  0  0  0  0  0  0  0  0
    9.1219   -3.5199    5.3389 O   0  0  0  0  0  0  0  0  0  0  0  0
   10.6389   -2.3629    4.1679 N   0  0  0  0  0  0  0  0  0  0  0  0
   10.6565   -0.9301    4.4650 C   0  0  0  0  0  0  0  0  0  0  0  0
   11.8009   -3.1061    4.7646 C   0  0  0  0  0  0  0  0  0  0  0  0
   12.3955   -4.5561    4.4676 C   0  0  0  0  0  0  0  0  0  0  0  0
   13.6152   -4.6964    4.6550 O   0  0  0  0  0  0  0  0  0  0  0  0
   11.6521   -5.6559    4.0494 N   0  0  0  0  0  0  0  0  0  0  0  0
   10.2659   -5.8297    4.3832 C   0  0  0  0  0  0  0  0  0  0  0  0
   12.3912   -6.8573    3.5505 C   0  0  2  0  0  0  0  0  0  0  0  0
   11.6172   -7.7314    2.5079 C   0  0  0  0  0  0  0  0  0  0  0  0
   11.2826   -7.0013    1.2051 C   0  0  0  0  0  0  0  0  0  0  0  0
   12.5718   -6.8099    0.4237 C   0  0  0  0  0  0  0  0  0  0  0  0
   10.2630   -7.7451    0.3336 C   0  0  0  0  0  0  0  0  0  0  0  0
   12.7727   -7.7967    4.7170 C   0  0  0  0  0  0  0  0  0  0  0  0
   11.9294   -8.1794    5.5375 O   0  0  0  0  0  0  0  0  0  0  0  0
   14.0387   -8.3169    4.8150 N   0  0  0  0  0  0  0  0  0  0  0  0
   15.2965   -7.7786    4.2684 C   0  0  1  0  0  0  0  0  0  0  0  0
   16.4677   -7.9558    5.2449 C   0  0  0  0  0  0  0  0  0  0  0  0
   17.7742   -7.4408    4.6305 C   0  0  0  0  0  0  0  0  0  0  0  0
   16.2487   -7.3054    6.6131 C   0  0  0  0  0  0  0  0  0  0  0  0
   15.5402   -8.3205    2.8521 C   0  0  0  0  0  0  0  0  0  0  0  0
   15.2657   -7.5546    1.8757 O   0  0  0  0  0  0  0  0  0  0  0  0
   15.8937   -9.6483    2.5898 N   0  0  0  0  0  0  0  0  0  0  0  0
   16.9682  -10.3796    3.2419 C   0  0  0  0  0  0  0  0  0  0  0  0
   15.6063  -10.0796    1.1918 C   0  0  2  0  0  0  0  0  0  0  0  0
   15.2410  -11.5760    1.0254 C   0  0  0  0  0  0  0  0  0  0  0  0
   13.8519  -11.9231    1.6097 C   0  0  0  0  0  0  0  0  0  0  0  0
   13.5151  -13.3734    1.2895 C   0  0  0  0  0  0  0  0  0  0  0  0
   13.7314  -11.6896    3.1155 C   0  0  0  0  0  0  0  0  0  0  0  0
   16.7703   -9.7076    0.2538 C   0  0  0  0  0  0  0  0  0  0  0  0
   17.9624   -9.9460    0.4984 O   0  0  0  0  0  0  0  0  0  0  0  0
   16.5087   -9.1024   -0.9343 N   0  0  0  0  0  0  0  0  0  0  0  0
   15.2572   -8.4752   -1.2981 C   0  0  1  0  0  0  0  0  0  0  0  0
   15.4687   -7.0141   -1.5892 C   0  0  0  0  0  0  0  0  0  0  0  0
   14.3387   -9.4449   -2.0918 C   0  0  0  0  0  0  0  0  0  0  0  0
   13.6677  -10.2736   -1.4535 O   0  0  0  0  0  0  0  0  0  0  0  0
   14.2466   -9.5854   -3.4389 N   0  0  0  0  0  0  0  0  0  0  0  0
   14.7135   -8.7318   -4.5346 C   0  0  2  0  0  0  0  0  0  0  0  0
   13.8415   -9.0346   -5.6509 O   0  0  0  0  0  0  0  0  0  0  0  0
   16.1030   -9.1597   -5.0459 C   0  0  0  0  0  0  0  0  0  0  0  0
   17.2544   -9.0004   -4.0716 C   0  0  0  0  0  0  0  0  0  0  0  0
   16.0982  -10.6397   -5.5103 C   0  0  0  0  0  0  0  0  0  0  0  0
   14.1536   -7.3073   -4.1534 C   0  0  0  0  0  0  0  0  0  0  0  0
   13.1189   -7.3349   -3.4581 O   0  0  0  0  0  0  0  0  0  0  0  0
   14.6666   -6.0782   -4.5470 N   0  0  0  0  0  0  0  0  0  0  0  0
   15.9590   -5.9042   -5.1898 C   0  0  0  0  0  0  0  0  0  0  0  0
   14.0499   -4.8075   -3.9877 C   0  0  1  0  0  0  0  0  0  0  0  0
   12.4938   -4.8800   -3.9239 C   0  0  0  0  0  0  0  0  0  0  0  0
   11.8073   -5.2790   -5.2460 C   0  0  0  0  0  0  0  0  0  0  0  0
   10.3378   -5.6246   -4.9965 C   0  0  0  0  0  0  0  0  0  0  0  0
   11.9243   -4.1374   -6.2536 C   0  0  0  0  0  0  0  0  0  0  0  0
   14.9393   -4.2288   -2.7875 C   0  0  0  0  0  0  0  0  0  0  0  0
   16.1784   -4.2227   -2.8833 O   0  0  0  0  0  0  0  0  0  0  0  0
   14.4836   -3.6772   -1.6224 N   0  0  0  0  0  0  0  0  0  0  0  0
   13.1283   -3.2663   -1.3206 C   0  0  1  0  0  0  0  0  0  0  0  0
   12.7972   -3.3299    0.1183 C   0  0  0  0  0  0  0  0  0  0  0  0
   11.2723   -3.3869    0.2731 C   0  0  0  0  0  0  0  0  0  0  0  0
   10.4664   -4.3996   -0.5210 C   0  0  0  0  0  0  0  0  0  0  0  0
   11.0858   -3.5066    1.7299 C   0  0  0  0  0  0  0  0  0  0  0  0
   12.7866   -2.0065   -2.1075 C   0  0  0  0  0  0  0  0  0  0  0  0
   13.1964   -2.0875   -3.2744 O   0  0  0  0  0  0  0  0  0  0  0  0
   11.9729   -0.9612   -1.6953 N   0  0  0  0  0  0  0  0  0  0  0  0
   11.8822   -0.3651   -0.3506 C   0  0  0  0  0  0  0  0  0  0  0  0
   11.1151   -0.2392   -2.6896 C   0  0  1  0  0  0  0  0  0  0  0  0
   11.5548   -0.3671   -4.1863 C   0  0  0  0  0  0  0  0  0  0  0  0
   10.7131    0.4044   -5.1908 C   0  0  0  0  0  0  0  0  0  0  0  0
   13.0285    0.1262   -4.4211 C   0  0  0  0  0  0  0  0  0  0  0  0
    9.6057   -0.4186   -2.1326 C   0  0  0  0  0  0  0  0  0  0  0  0
    9.0547    0.5765   -1.6541 O   0  0  0  0  0  0  0  0  0  0  0  0
    9.0173   -1.7040   -1.9587 N   0  0  0  0  0  0  0  0  0  0  0  0
    9.1612   -2.5484   -3.1277 C   0  0  0  0  0  0  0  0  0  0  0  0
    1.6505   -4.1720   -1.0780 H   0  0  0  0  0  0  0  0  0  0  0  0
    2.3690   -5.7765   -1.2511 H   0  0  0  0  0  0  0  0  0  0  0  0
    1.5769   -4.9907   -2.6461 H   0  0  0  0  0  0  0  0  0  0  0  0
    3.5965   -3.1296   -1.8740 H   0  0  0  0  0  0  0  0  0  0  0  0
    4.3408   -5.8843   -2.9849 H   0  0  0  0  0  0  0  0  0  0  0  0
    6.0266   -4.7494   -4.1375 H   0  0  0  0  0  0  0  0  0  0  0  0
    6.6206   -4.7321   -2.5083 H   0  0  0  0  0  0  0  0  0  0  0  0
    6.9451   -2.7102   -3.9819 H   0  0  0  0  0  0  0  0  0  0  0  0
    4.0919   -1.8688   -3.7785 H   0  0  0  0  0  0  0  0  0  0  0  0
    4.6572   -2.9930   -5.0240 H   0  0  0  0  0  0  0  0  0  0  0  0
    5.3749   -1.4050   -4.9100 H   0  0  0  0  0  0  0  0  0  0  0  0
    5.5017   -1.9462   -1.3715 H   0  0  0  0  0  0  0  0  0  0  0  0
    5.5146   -0.3308   -3.0335 H   0  0  0  0  0  0  0  0  0  0  0  0
    7.6753   -0.9237   -0.4946 H   0  0  0  0  0  0  0  0  0  0  0  0
    7.5965   -4.0370    1.6388 H   0  0  0  0  0  0  0  0  0  0  0  0
    7.8187   -3.7281    3.4352 H   0  0  0  0  0  0  0  0  0  0  0  0
    6.8775   -0.9341    3.4842 H   0  0  0  0  0  0  0  0  0  0  0  0
    5.9153   -3.5446    4.8201 H   0  0  0  0  0  0  0  0  0  0  0  0
    5.3646   -3.0279    3.2060 H   0  0  0  0  0  0  0  0  0  0  0  0
    5.0132   -2.0572    4.6623 H   0  0  0  0  0  0  0  0  0  0  0  0
    7.6830   -2.4050    5.8119 H   0  0  0  0  0  0  0  0  0  0  0  0
    9.7716   -0.6317    5.0327 H   0  0  0  0  0  0  0  0  0  0  0  0
   10.6944   -0.3710    3.5296 H   0  0  0  0  0  0  0  0  0  0  0  0
   11.5330   -0.6644    5.0724 H   0  0  0  0  0  0  0  0  0  0  0  0
   11.8110   -2.9577    5.8470 H   0  0  0  0  0  0  0  0  0  0  0  0
   12.6409   -2.4988    4.3699 H   0  0  0  0  0  0  0  0  0  0  0  0
    9.6785   -5.2292    3.6983 H   0  0  0  0  0  0  0  0  0  0  0  0
   10.1070   -5.5721    5.4332 H   0  0  0  0  0  0  0  0  0  0  0  0
    9.9096   -6.8623    4.2447 H   0  0  0  0  0  0  0  0  0  0  0  0
   13.3041   -6.4875    3.0873 H   0  0  0  0  0  0  0  0  0  0  0  0
   12.2221   -8.6205    2.2689 H   0  0  0  0  0  0  0  0  0  0  0  0
   10.6972   -8.1372    2.9408 H   0  0  0  0  0  0  0  0  0  0  0  0
   10.8263   -6.0491    1.4672 H   0  0  0  0  0  0  0  0  0  0  0  0
   12.9766   -7.7875    0.2100 H   0  0  0  0  0  0  0  0  0  0  0  0
   13.3082   -6.2374    0.9908 H   0  0  0  0  0  0  0  0  0  0  0  0
   12.4628   -6.3185   -0.5399 H   0  0  0  0  0  0  0  0  0  0  0  0
   10.7162   -8.5951   -0.1841 H   0  0  0  0  0  0  0  0  0  0  0  0
    9.8544   -7.0864   -0.4416 H   0  0  0  0  0  0  0  0  0  0  0  0
    9.4131   -8.0989    0.9233 H   0  0  0  0  0  0  0  0  0  0  0  0
   14.1108   -8.9597    5.5955 H   0  0  0  0  0  0  0  0  0  0  0  0
   15.1512   -6.6912    4.1587 H   0  0  0  0  0  0  0  0  0  0  0  0
   16.5509   -9.0088    5.5015 H   0  0  0  0  0  0  0  0  0  0  0  0
   17.8385   -6.3500    4.6980 H   0  0  0  0  0  0  0  0  0  0  0  0
   17.8781   -7.6996    3.5716 H   0  0  0  0  0  0  0  0  0  0  0  0
   18.6350   -7.8726    5.1479 H   0  0  0  0  0  0  0  0  0  0  0  0
   16.2133   -6.2160    6.5471 H   0  0  0  0  0  0  0  0  0  0  0  0
   17.0713   -7.5874    7.2804 H   0  0  0  0  0  0  0  0  0  0  0  0
   15.3242   -7.6602    7.0792 H   0  0  0  0  0  0  0  0  0  0  0  0
   17.0308  -10.2164    4.3091 H   0  0  0  0  0  0  0  0  0  0  0  0
   17.9267  -10.1037    2.8172 H   0  0  0  0  0  0  0  0  0  0  0  0
   16.8252  -11.4652    3.1396 H   0  0  0  0  0  0  0  0  0  0  0  0
   14.6949   -9.5794    0.9364 H   0  0  0  0  0  0  0  0  0  0  0  0
   15.2254  -11.7979   -0.0445 H   0  0  0  0  0  0  0  0  0  0  0  0
   16.0140  -12.2413    1.4346 H   0  0  0  0  0  0  0  0  0  0  0  0
   13.1027  -11.2874    1.1170 H   0  0  0  0  0  0  0  0  0  0  0  0
   14.2540  -14.0523    1.7272 H   0  0  0  0  0  0  0  0  0  0  0  0
   13.4955  -13.5355    0.2074 H   0  0  0  0  0  0  0  0  0  0  0  0
   12.5297  -13.6360    1.6864 H   0  0  0  0  0  0  0  0  0  0  0  0
   14.5411  -12.1812    3.6637 H   0  0  0  0  0  0  0  0  0  0  0  0
   12.7807  -12.0692    3.4978 H   0  0  0  0  0  0  0  0  0  0  0  0
   13.7444  -10.6244    3.3538 H   0  0  0  0  0  0  0  0  0  0  0  0
   17.3503   -8.7877   -1.4010 H   0  0  0  0  0  0  0  0  0  0  0  0
   14.6949   -8.3690   -0.3836 H   0  0  0  0  0  0  0  0  0  0  0  0
   16.0725   -6.8517   -2.4735 H   0  0  0  0  0  0  0  0  0  0  0  0
   16.0053   -6.5240   -0.7667 H   0  0  0  0  0  0  0  0  0  0  0  0
   14.5114   -6.5028   -1.6718 H   0  0  0  0  0  0  0  0  0  0  0  0
   13.4658  -10.1964   -3.6261 H   0  0  0  0  0  0  0  0  0  0  0  0
   13.3939   -9.8690   -5.4555 H   0  0  0  0  0  0  0  0  0  0  0  0
   16.3401   -8.5982   -5.9523 H   0  0  0  0  0  0  0  0  0  0  0  0
   17.1834   -9.7386   -3.2712 H   0  0  0  0  0  0  0  0  0  0  0  0
   17.3094   -7.9992   -3.6529 H   0  0  0  0  0  0  0  0  0  0  0  0
   18.2092   -9.1835   -4.5775 H   0  0  0  0  0  0  0  0  0  0  0  0
   15.8019  -11.3169   -4.7013 H   0  0  0  0  0  0  0  0  0  0  0  0
   17.0943  -10.9433   -5.8481 H   0  0  0  0  0  0  0  0  0  0  0  0
   15.4134  -10.7970   -6.3502 H   0  0  0  0  0  0  0  0  0  0  0  0
   16.1369   -6.6765   -5.9277 H   0  0  0  0  0  0  0  0  0  0  0  0
   16.7523   -5.9364   -4.4403 H   0  0  0  0  0  0  0  0  0  0  0  0
   15.9938   -4.9418   -5.7075 H   0  0  0  0  0  0  0  0  0  0  0  0
   14.2441   -4.0518   -4.7600 H   0  0  0  0  0  0  0  0  0  0  0  0
   12.0603   -3.9194   -3.6704 H   0  0  0  0  0  0  0  0  0  0  0  0
   12.1544   -5.5226   -3.1050 H   0  0  0  0  0  0  0  0  0  0  0  0
   12.2748   -6.1689   -5.6766 H   0  0  0  0  0  0  0  0  0  0  0  0
    9.7891   -4.7718   -4.5925 H   0  0  0  0  0  0  0  0  0  0  0  0
   10.2447   -6.4525   -4.2846 H   0  0  0  0  0  0  0  0  0  0  0  0
    9.8456   -5.9261   -5.9259 H   0  0  0  0  0  0  0  0  0  0  0  0
   11.5149   -3.2094   -5.8429 H   0  0  0  0  0  0  0  0  0  0  0  0
   11.3830   -4.3672   -7.1735 H   0  0  0  0  0  0  0  0  0  0  0  0
   12.9695   -3.9534   -6.5188 H   0  0  0  0  0  0  0  0  0  0  0  0
   15.2336   -3.2671   -1.0818 H   0  0  0  0  0  0  0  0  0  0  0  0
   12.5369   -4.0553   -1.7507 H   0  0  0  0  0  0  0  0  0  0  0  0
   13.2547   -2.5142    0.6830 H   0  0  0  0  0  0  0  0  0  0  0  0
   13.2610   -4.2145    0.5623 H   0  0  0  0  0  0  0  0  0  0  0  0
   10.8081   -2.4470    0.0093 H   0  0  0  0  0  0  0  0  0  0  0  0
   11.0229   -5.2335   -0.9127 H   0  0  0  0  0  0  0  0  0  0  0  0
   10.0732   -3.9309   -1.4103 H   0  0  0  0  0  0  0  0  0  0  0  0
    9.6139   -4.7855    0.0376 H   0  0  0  0  0  0  0  0  0  0  0  0
   11.7769   -4.2315    2.1377 H   0  0  0  0  0  0  0  0  0  0  0  0
   10.0813   -3.8025    1.9897 H   0  0  0  0  0  0  0  0  0  0  0  0
   11.3412   -2.5248    2.1246 H   0  0  0  0  0  0  0  0  0  0  0  0
   12.5951   -0.7620    0.3593 H   0  0  0  0  0  0  0  0  0  0  0  0
   10.8667   -0.4763    0.0488 H   0  0  0  0  0  0  0  0  0  0  0  0
   12.0655    0.7104   -0.4265 H   0  0  0  0  0  0  0  0  0  0  0  0
   11.3091    0.8246   -2.4854 H   0  0  0  0  0  0  0  0  0  0  0  0
   11.4753   -1.4143   -4.4904 H   0  0  0  0  0  0  0  0  0  0  0  0
   10.8532    1.4830   -5.0740 H   0  0  0  0  0  0  0  0  0  0  0  0
    9.6556    0.1617   -5.1083 H   0  0  0  0  0  0  0  0  0  0  0  0
   11.0452    0.1414   -6.2059 H   0  0  0  0  0  0  0  0  0  0  0  0
   13.0881    1.1920   -4.6477 H   0  0  0  0  0  0  0  0  0  0  0  0
   13.4718   -0.4246   -5.2632 H   0  0  0  0  0  0  0  0  0  0  0  0
   13.6992   -0.0088   -3.5639 H   0  0  0  0  0  0  0  0  0  0  0  0
   10.2109   -2.7390   -3.3394 H   0  0  0  0  0  0  0  0  0  0  0  0
    8.7699   -2.0143   -4.0004 H   0  0  0  0  0  0  0  0  0  0  0  0
    8.6616   -3.5077   -2.9887 H   0  0  0  0  0  0  0  0  0  0  0  0
  1  2  1  0  0  0  0
  1 89  1  0  0  0  0
  1 90  1  0  0  0  0
  1 91  1  0  0  0  0
  2  3  2  0  0  0  0
  2 92  1  0  0  0  0
  3  4  1  0  0  0  0
  3 93  1  0  0  0  0
  4  5  1  0  0  0  0
  4 94  1  0  0  0  0
  4 95  1  0  0  0  0
  5  6  1  0  0  0  0
  5  7  1  0  0  0  0
  5 96  1  6  0  0  0
  6 97  1  0  0  0  0
  6 98  1  0  0  0  0
  6 99  1  0  0  0  0
  7  8  1  0  0  0  0
  7100  1  6  0  0  0
  8101  1  0  0  0  0
  9 10  1  0  0  0  0
  9 87  1  0  0  0  0
  9  7  1  0  0  0  0
  9102  1  1  0  0  0
 10 11  2  0  0  0  0
 10 12  1  0  0  0  0
 12 13  1  0  0  0  0
 12103  1  0  0  0  0
 13 14  1  0  0  0  0
 13 17  1  0  0  0  0
 13104  1  6  0  0  0
 14 15  1  0  0  0  0
 14 16  1  0  0  0  0
 14105  1  6  0  0  0
 15106  1  0  0  0  0
 15107  1  0  0  0  0
 15108  1  0  0  0  0
 16109  1  0  0  0  0
 17 18  2  0  0  0  0
 17 19  1  0  0  0  0
 19 20  1  0  0  0  0
 19 21  1  0  0  0  0
 20110  1  0  0  0  0
 20111  1  0  0  0  0
 20112  1  0  0  0  0
 21 22  1  0  0  0  0
 21113  1  0  0  0  0
 21114  1  0  0  0  0
 22 23  2  0  0  0  0
 22 24  1  0  0  0  0
 24 25  1  0  0  0  0
 24 26  1  0  0  0  0
 25115  1  0  0  0  0
 25116  1  0  0  0  0
 25117  1  0  0  0  0
 26 31  1  0  0  0  0
 26 27  1  0  0  0  0
 26118  1  6  0  0  0
 27 28  1  0  0  0  0
 27119  1  0  0  0  0
 27120  1  0  0  0  0
 28 29  1  0  0  0  0
 28 30  1  0  0  0  0
 28121  1  0  0  0  0
 29122  1  0  0  0  0
 29123  1  0  0  0  0
 29124  1  0  0  0  0
 30125  1  0  0  0  0
 30126  1  0  0  0  0
 30127  1  0  0  0  0
 31 32  2  0  0  0  0
 31 33  1  0  0  0  0
 33 34  1  0  0  0  0
 33128  1  0  0  0  0
 34 35  1  0  0  0  0
 34 38  1  0  0  0  0
 34129  1  6  0  0  0
 35 36  1  0  0  0  0
 35 37  1  0  0  0  0
 35130  1  0  0  0  0
 36131  1  0  0  0  0
 36132  1  0  0  0  0
 36133  1  0  0  0  0
 37134  1  0  0  0  0
 37135  1  0  0  0  0
 37136  1  0  0  0  0
 38 39  2  0  0  0  0
 38 40  1  0  0  0  0
 40 41  1  0  0  0  0
 40 42  1  0  0  0  0
 41137  1  0  0  0  0
 41138  1  0  0  0  0
 41139  1  0  0  0  0
 42 47  1  0  0  0  0
 42 43  1  0  0  0  0
 42140  1  6  0  0  0
 43 44  1  0  0  0  0
 43141  1  0  0  0  0
 43142  1  0  0  0  0
 44 45  1  0  0  0  0
 44 46  1  0  0  0  0
 44143  1  0  0  0  0
 45144  1  0  0  0  0
 45145  1  0  0  0  0
 45146  1  0  0  0  0
 46147  1  0  0  0  0
 46148  1  0  0  0  0
 46149  1  0  0  0  0
 47 48  2  0  0  0  0
 47 49  1  0  0  0  0
 49 50  1  0  0  0  0
 49150  1  0  0  0  0
 50 51  1  0  0  0  0
 50 52  1  0  0  0  0
 50151  1  1  0  0  0
 51152  1  0  0  0  0
 51153  1  0  0  0  0
 51154  1  0  0  0  0
 52 53  2  0  0  0  0
 52 54  1  0  0  0  0
 54 55  1  0  0  0  0
 54155  1  0  0  0  0
 55 56  1  6  0  0  0
 55 57  1  0  0  0  0
 55 60  1  0  0  0  0
 56156  1  0  0  0  0
 57 58  1  0  0  0  0
 57 59  1  0  0  0  0
 57157  1  0  0  0  0
 58158  1  0  0  0  0
 58159  1  0  0  0  0
 58160  1  0  0  0  0
 59161  1  0  0  0  0
 59162  1  0  0  0  0
 59163  1  0  0  0  0
 60 61  2  0  0  0  0
 60 62  1  0  0  0  0
 62 63  1  0  0  0  0
 62 64  1  0  0  0  0
 63164  1  0  0  0  0
 63165  1  0  0  0  0
 63166  1  0  0  0  0
 64 65  1  0  0  0  0
 64 69  1  0  0  0  0
 64167  1  6  0  0  0
 65 66  1  0  0  0  0
 65168  1  0  0  0  0
 65169  1  0  0  0  0
 66 67  1  0  0  0  0
 66 68  1  0  0  0  0
 66170  1  0  0  0  0
 67171  1  0  0  0  0
 67172  1  0  0  0  0
 67173  1  0  0  0  0
 68174  1  0  0  0  0
 68175  1  0  0  0  0
 68176  1  0  0  0  0
 69 70  2  0  0  0  0
 69 71  1  0  0  0  0
 71 72  1  0  0  0  0
 71177  1  0  0  0  0
 72 73  1  0  0  0  0
 72 77  1  0  0  0  0
 72178  1  6  0  0  0
 73 74  1  0  0  0  0
 73179  1  0  0  0  0
 73180  1  0  0  0  0
 74 75  1  0  0  0  0
 74 76  1  0  0  0  0
 74181  1  0  0  0  0
 75182  1  0  0  0  0
 75183  1  0  0  0  0
 75184  1  0  0  0  0
 76185  1  0  0  0  0
 76186  1  0  0  0  0
 76187  1  0  0  0  0
 77 78  2  0  0  0  0
 77 79  1  0  0  0  0
 79 80  1  0  0  0  0
 79 81  1  0  0  0  0
 80188  1  0  0  0  0
 80189  1  0  0  0  0
 80190  1  0  0  0  0
 81 82  1  0  0  0  0
 81 85  1  0  0  0  0
 81191  1  1  0  0  0
 82 83  1  0  0  0  0
 82 84  1  0  0  0  0
 82192  1  0  0  0  0
 83193  1  0  0  0  0
 83194  1  0  0  0  0
 83195  1  0  0  0  0
 84196  1  0  0  0  0
 84197  1  0  0  0  0
 84198  1  0  0  0  0
 85 86  2  0  0  0  0
 85 87  1  0  0  0  0
 87 88  1  0  0  0  0
 88199  1  0  0  0  0
 88200  1  0  0  0  0
 88201  1  0  0  0  0
M  END
>  <Energy>
668.791

$$$$