50
 OpenBabel03292021473D

202202  0  0  1  0  0  0  0  0999 V2000
    6.8021    3.0547    0.7503 C   0  0  0  0  0  0  0  0  0  0  0  0
    8.0143    3.1763    1.7302 C   0  0  0  0  0  0  0  0  0  0  0  0
    8.3311    2.6658    3.2378 C   0  0  0  0  0  0  0  0  0  0  0  0
    7.7923    1.8056    4.1721 C   0  0  0  0  0  0  0  0  0  0  0  0
    8.0331    1.4833    5.8864 C   0  0  0  0  0  0  0  0  0  0  0  0
    9.1075    0.4278    6.9376 C   0  0  1  0  0  0  0  0  0  0  0  0
   10.0592   -0.0187    5.7944 C   0  0  0  0  0  0  0  0  0  0  0  0
    9.6082    0.7443    8.7743 C   0  0  1  0  0  0  0  0  0  0  0  0
   10.1745    2.0700    8.6935 O   0  0  0  0  0  0  0  0  0  0  0  0
   10.6858   -0.2086   10.0884 C   0  0  1  0  0  0  0  0  0  0  0  0
   10.7578   -0.7897   11.9573 C   0  0  0  0  0  0  0  0  0  0  0  0
    9.7357   -1.3309   12.4211 O   0  0  0  0  0  0  0  0  0  0  0  0
   12.0847   -0.9727   12.9584 N   0  0  0  0  0  0  0  0  0  0  0  0
   12.4313   -1.6320   14.6614 C   0  0  1  0  0  0  0  0  0  0  0  0
   12.8813   -0.7677   16.1535 C   0  0  0  0  0  0  0  0  0  0  0  0
   11.8291    0.0927   16.8830 C   0  0  0  0  0  0  0  0  0  0  0  0
   13.3141   -1.6340   17.4784 C   0  0  0  0  0  0  0  0  0  0  0  0
   13.3505   -3.0630   14.8892 C   0  0  0  0  0  0  0  0  0  0  0  0
   12.7495   -4.1242   14.6636 O   0  0  0  0  0  0  0  0  0  0  0  0
   14.6844   -3.1870   15.4214 N   0  0  0  0  0  0  0  0  0  0  0  0
   15.7024   -2.1318   15.6730 C   0  0  0  0  0  0  0  0  0  0  0  0
   15.3050   -4.5545   15.4565 C   0  0  0  0  0  0  0  0  0  0  0  0
   14.8320   -5.9523   15.9969 C   0  0  0  0  0  0  0  0  0  0  0  0
   14.8379   -6.8706   15.1646 O   0  0  0  0  0  0  0  0  0  0  0  0
   14.6303   -6.2363   17.3517 N   0  0  0  0  0  0  0  0  0  0  0  0
   14.7518   -5.2263   18.3833 C   0  0  0  0  0  0  0  0  0  0  0  0
   14.3409   -7.6643   17.7904 C   0  0  2  0  0  0  0  0  0  0  0  0
   12.9515   -7.7493   18.4907 C   0  0  0  0  0  0  0  0  0  0  0  0
   12.4889   -9.0736   19.1446 C   0  0  0  0  0  0  0  0  0  0  0  0
   13.1626   -9.3579   20.4914 C   0  0  0  0  0  0  0  0  0  0  0  0
   10.9738   -9.0021   19.4052 C   0  0  0  0  0  0  0  0  0  0  0  0
   15.4697   -8.2914   18.6489 C   0  0  0  0  0  0  0  0  0  0  0  0
   15.8961   -7.7215   19.6612 O   0  0  0  0  0  0  0  0  0  0  0  0
   15.9852   -9.5405   18.3932 N   0  0  0  0  0  0  0  0  0  0  0  0
   16.2252  -10.2492   17.1068 C   0  0  2  0  0  0  0  0  0  0  0  0
   16.8902   -9.3256   16.0728 C   0  0  0  0  0  0  0  0  0  0  0  0
   17.1039  -10.0066   14.7207 C   0  0  0  0  0  0  0  0  0  0  0  0
   18.2053   -8.7258   16.5795 C   0  0  0  0  0  0  0  0  0  0  0  0
   14.9231  -10.9329   16.5115 C   0  0  0  0  0  0  0  0  0  0  0  0
   14.0487  -10.2533   16.0792 O   0  0  0  0  0  0  0  0  0  0  0  0
   14.7712  -12.3108   16.6226 N   0  0  0  0  0  0  0  0  0  0  0  0
   15.8546  -13.2755   16.5307 C   0  0  0  0  0  0  0  0  0  0  0  0
   13.3744  -12.8063   16.4301 C   0  0  2  0  0  0  0  0  0  0  0  0
   12.8990  -13.7594   17.5508 C   0  0  0  0  0  0  0  0  0  0  0  0
   12.7067  -13.0665   18.9190 C   0  0  0  0  0  0  0  0  0  0  0  0
   12.0629  -14.0245   19.9196 C   0  0  0  0  0  0  0  0  0  0  0  0
   14.0093  -12.5426   19.5196 C   0  0  0  0  0  0  0  0  0  0  0  0
   13.1449  -13.4757   15.0456 C   0  0  0  0  0  0  0  0  0  0  0  0
   13.7304  -14.5096   14.7199 O   0  0  0  0  0  0  0  0  0  0  0  0
   12.2824  -12.9249   14.1398 N   0  0  0  0  0  0  0  0  0  0  0  0
   11.5554  -11.6453   14.2050 C   0  0  1  0  0  0  0  0  0  0  0  0
   11.5219  -11.0306   12.8246 C   0  0  0  0  0  0  0  0  0  0  0  0
   10.2524  -11.7988   15.0466 C   0  0  0  0  0  0  0  0  0  0  0  0
   10.3348  -12.2728   16.1917 O   0  0  0  0  0  0  0  0  0  0  0  0
    8.9808  -11.4568   14.6969 N   0  0  0  0  0  0  0  0  0  0  0  0
    8.2750  -11.3966   13.4202 C   0  0  2  0  0  0  0  0  0  0  0  0
    8.5107  -12.6257   12.5608 C   0  0  0  0  0  0  0  0  0  0  0  0
    8.4256  -10.0272   12.6949 C   0  0  0  0  0  0  0  0  0  0  0  0
    9.0070   -9.9530   11.6150 O   0  0  0  0  0  0  0  0  0  0  0  0
    7.9002   -8.9197   13.3678 N   0  0  0  0  0  0  0  0  0  0  0  0
    6.4524   -8.8978   13.5399 C   0  0  0  0  0  0  0  0  0  0  0  0
    8.4677   -7.5595   13.1086 C   0  0  1  0  0  0  0  0  0  0  0  0
    9.9619   -7.4236   13.3803 C   0  0  0  0  0  0  0  0  0  0  0  0
   10.4615   -7.6403   14.8042 C   0  0  0  0  0  0  0  0  0  0  0  0
   11.9842   -7.5403   14.7430 C   0  0  0  0  0  0  0  0  0  0  0  0
    9.8763   -6.6317   15.7828 C   0  0  0  0  0  0  0  0  0  0  0  0
    7.9617   -6.9478   11.7334 C   0  0  0  0  0  0  0  0  0  0  0  0
    6.9348   -6.2652   11.7789 O   0  0  0  0  0  0  0  0  0  0  0  0
    8.5635   -7.3225   10.5665 N   0  0  0  0  0  0  0  0  0  0  0  0
   10.0216   -7.3628   10.4439 C   0  0  0  0  0  0  0  0  0  0  0  0
    7.9036   -7.0875    9.2855 C   0  0  1  0  0  0  0  0  0  0  0  0
    6.4033   -7.2709    9.0906 C   0  0  0  0  0  0  0  0  0  0  0  0
    5.9832   -7.0000    7.6247 C   0  0  0  0  0  0  0  0  0  0  0  0
    6.5990   -7.9854    6.6254 C   0  0  0  0  0  0  0  0  0  0  0  0
    4.4670   -6.9713    7.5173 C   0  0  0  0  0  0  0  0  0  0  0  0
    8.5695   -5.8998    8.5364 C   0  0  0  0  0  0  0  0  0  0  0  0
    9.3700   -6.2553    7.6763 O   0  0  0  0  0  0  0  0  0  0  0  0
    8.4298   -4.6013    8.9412 N   0  0  0  0  0  0  0  0  0  0  0  0
    7.1004   -3.9951    9.0355 C   0  0  0  0  0  0  0  0  0  0  0  0
    9.6607   -3.7507    9.1636 C   0  0  1  0  0  0  0  0  0  0  0  0
   10.9082   -4.1391    8.3220 C   0  0  0  0  0  0  0  0  0  0  0  0
   11.8761   -5.1303    8.9556 C   0  0  0  0  0  0  0  0  0  0  0  0
   10.6990   -4.1097    6.8019 C   0  0  0  0  0  0  0  0  0  0  0  0
    9.5642   -2.1759    9.2135 C   0  0  0  0  0  0  0  0  0  0  0  0
    8.4875   -1.5779    9.2798 O   0  0  0  0  0  0  0  0  0  0  0  0
   10.8203   -1.4611    9.3646 N   0  0  0  0  0  0  0  0  0  0  0  0
   11.6337   -1.2461    8.1663 C   0  0  0  0  0  0  0  0  0  0  0  0
    6.9527    3.7669   -0.0914 H   0  0  0  0  0  0  0  0  0  0  0  0
    5.8369    3.3382    1.1778 H   0  0  0  0  0  0  0  0  0  0  0  0
    6.7224    2.0815    0.2531 H   0  0  0  0  0  0  0  0  0  0  0  0
    8.1159    4.2735    1.8059 H   0  0  0  0  0  0  0  0  0  0  0  0
    8.8757    2.8787    1.1101 H   0  0  0  0  0  0  0  0  0  0  0  0
    9.2219    3.2044    3.5484 H   0  0  0  0  0  0  0  0  0  0  0  0
    6.8851    1.3049    3.8107 H   0  0  0  0  0  0  0  0  0  0  0  0
    7.1594    0.8037    5.9239 H   0  0  0  0  0  0  0  0  0  0  0  0
    7.6946    2.3597    6.4429 H   0  0  0  0  0  0  0  0  0  0  0  0
    8.4391   -0.4319    7.0890 H   0  0  0  0  0  0  0  0  0  0  0  0
   10.8179    0.7214    5.5362 H   0  0  0  0  0  0  0  0  0  0  0  0
    9.4627   -0.1671    4.8750 H   0  0  0  0  0  0  0  0  0  0  0  0
   10.4897   -1.0079    5.8734 H   0  0  0  0  0  0  0  0  0  0  0  0
    8.6342    0.8470    9.2696 H   0  0  0  0  0  0  0  0  0  0  0  0
    9.5386    2.5987    8.1765 H   0  0  0  0  0  0  0  0  0  0  0  0
   11.6389    0.3416   10.0461 H   0  0  0  0  0  0  0  0  0  0  0  0
   12.8111   -1.3851   12.3874 H   0  0  0  0  0  0  0  0  0  0  0  0
   11.4108   -1.9490   14.9205 H   0  0  0  0  0  0  0  0  0  0  0  0
   13.7388   -0.1308   15.9100 H   0  0  0  0  0  0  0  0  0  0  0  0
   11.1153   -0.5326   17.4422 H   0  0  0  0  0  0  0  0  0  0  0  0
   11.2971    0.7865   16.2487 H   0  0  0  0  0  0  0  0  0  0  0  0
   12.3352    0.6831   17.6747 H   0  0  0  0  0  0  0  0  0  0  0  0
   12.4760   -2.1788   17.9323 H   0  0  0  0  0  0  0  0  0  0  0  0
   13.7036   -0.9620   18.2685 H   0  0  0  0  0  0  0  0  0  0  0  0
   14.0985   -2.3725   17.4114 H   0  0  0  0  0  0  0  0  0  0  0  0
   15.8752   -2.0069   16.7543 H   0  0  0  0  0  0  0  0  0  0  0  0
   15.4526   -1.1806   15.2169 H   0  0  0  0  0  0  0  0  0  0  0  0
   16.6833   -2.4563   15.2980 H   0  0  0  0  0  0  0  0  0  0  0  0
   16.2908   -4.4531   15.9443 H   0  0  0  0  0  0  0  0  0  0  0  0
   15.5414   -4.7337   14.3990 H   0  0  0  0  0  0  0  0  0  0  0  0
   14.0923   -4.3993   18.1293 H   0  0  0  0  0  0  0  0  0  0  0  0
   15.7868   -4.8826   18.4399 H   0  0  0  0  0  0  0  0  0  0  0  0
   14.4542   -5.6091   19.3633 H   0  0  0  0  0  0  0  0  0  0  0  0
   14.2695   -8.2474   16.8846 H   0  0  0  0  0  0  0  0  0  0  0  0
   12.8513   -6.9606   19.2426 H   0  0  0  0  0  0  0  0  0  0  0  0
   12.2151   -7.4900   17.7243 H   0  0  0  0  0  0  0  0  0  0  0  0
   12.6682   -9.9071   18.4583 H   0  0  0  0  0  0  0  0  0  0  0  0
   13.1653   -8.4707   21.1321 H   0  0  0  0  0  0  0  0  0  0  0  0
   14.1927   -9.6943   20.3770 H   0  0  0  0  0  0  0  0  0  0  0  0
   12.6397  -10.1557   21.0319 H   0  0  0  0  0  0  0  0  0  0  0  0
   10.7323   -8.1730   20.0806 H   0  0  0  0  0  0  0  0  0  0  0  0
   10.6094   -9.9261   19.8690 H   0  0  0  0  0  0  0  0  0  0  0  0
   10.4164   -8.8578   18.4746 H   0  0  0  0  0  0  0  0  0  0  0  0
   16.6587   -9.7733   19.1194 H   0  0  0  0  0  0  0  0  0  0  0  0
   16.9485  -11.0226   17.3823 H   0  0  0  0  0  0  0  0  0  0  0  0
   16.2225   -8.4910   15.8920 H   0  0  0  0  0  0  0  0  0  0  0  0
   17.7846  -10.8586   14.8035 H   0  0  0  0  0  0  0  0  0  0  0  0
   17.5216   -9.2951   14.0016 H   0  0  0  0  0  0  0  0  0  0  0  0
   16.1578  -10.3620   14.2991 H   0  0  0  0  0  0  0  0  0  0  0  0
   18.9614   -9.4987   16.7454 H   0  0  0  0  0  0  0  0  0  0  0  0
   18.0666   -8.1801   17.5183 H   0  0  0  0  0  0  0  0  0  0  0  0
   18.5988   -8.0070   15.8527 H   0  0  0  0  0  0  0  0  0  0  0  0
   16.8120  -12.8776   16.8535 H   0  0  0  0  0  0  0  0  0  0  0  0
   15.9647  -13.5947   15.4927 H   0  0  0  0  0  0  0  0  0  0  0  0
   15.6332  -14.1544   17.1556 H   0  0  0  0  0  0  0  0  0  0  0  0
   12.7108  -11.9521   16.5073 H   0  0  0  0  0  0  0  0  0  0  0  0
   11.9290  -14.1773   17.2469 H   0  0  0  0  0  0  0  0  0  0  0  0
   13.5671  -14.6206   17.6508 H   0  0  0  0  0  0  0  0  0  0  0  0
   12.0182  -12.2216   18.7881 H   0  0  0  0  0  0  0  0  0  0  0  0
   12.7196  -14.8753   20.1273 H   0  0  0  0  0  0  0  0  0  0  0  0
   11.1079  -14.4040   19.5447 H   0  0  0  0  0  0  0  0  0  0  0  0
   11.8664  -13.5091   20.8669 H   0  0  0  0  0  0  0  0  0  0  0  0
   14.8173  -13.2753   19.4389 H   0  0  0  0  0  0  0  0  0  0  0  0
   13.8901  -12.2863   20.5767 H   0  0  0  0  0  0  0  0  0  0  0  0
   14.3230  -11.6285   19.0190 H   0  0  0  0  0  0  0  0  0  0  0  0
   12.1941  -13.4712   13.2943 H   0  0  0  0  0  0  0  0  0  0  0  0
   12.1612  -10.9523   14.7902 H   0  0  0  0  0  0  0  0  0  0  0  0
   11.0482  -11.6693   12.0781 H   0  0  0  0  0  0  0  0  0  0  0  0
   12.5375  -10.8311   12.4611 H   0  0  0  0  0  0  0  0  0  0  0  0
   11.0164  -10.0772   12.8627 H   0  0  0  0  0  0  0  0  0  0  0  0
    8.3789  -11.6164   15.4983 H   0  0  0  0  0  0  0  0  0  0  0  0
    7.2071  -11.4731   13.6910 H   0  0  0  0  0  0  0  0  0  0  0  0
    9.5245  -13.0188   12.6343 H   0  0  0  0  0  0  0  0  0  0  0  0
    8.2813  -12.4394   11.4986 H   0  0  0  0  0  0  0  0  0  0  0  0
    7.8527  -13.4495   12.8994 H   0  0  0  0  0  0  0  0  0  0  0  0
    6.0720   -9.8549   13.8959 H   0  0  0  0  0  0  0  0  0  0  0  0
    5.9831   -8.6982   12.5685 H   0  0  0  0  0  0  0  0  0  0  0  0
    6.1680   -8.1229   14.2557 H   0  0  0  0  0  0  0  0  0  0  0  0
    7.9947   -6.9066   13.8581 H   0  0  0  0  0  0  0  0  0  0  0  0
   10.3074   -6.4433   13.0261 H   0  0  0  0  0  0  0  0  0  0  0  0
   10.4941   -8.1749   12.8170 H   0  0  0  0  0  0  0  0  0  0  0  0
   10.2043   -8.6529   15.1343 H   0  0  0  0  0  0  0  0  0  0  0  0
   12.2999   -6.5041   14.6090 H   0  0  0  0  0  0  0  0  0  0  0  0
   12.4068   -8.1155   13.9104 H   0  0  0  0  0  0  0  0  0  0  0  0
   12.4292   -7.9343   15.6515 H   0  0  0  0  0  0  0  0  0  0  0  0
    9.9599   -5.6094   15.3984 H   0  0  0  0  0  0  0  0  0  0  0  0
   10.3868   -6.6724   16.7473 H   0  0  0  0  0  0  0  0  0  0  0  0
    8.8183   -6.8423   15.9645 H   0  0  0  0  0  0  0  0  0  0  0  0
   10.5105   -8.1088   11.0494 H   0  0  0  0  0  0  0  0  0  0  0  0
   10.3897   -6.3691   10.7086 H   0  0  0  0  0  0  0  0  0  0  0  0
   10.3303   -7.6321    9.4280 H   0  0  0  0  0  0  0  0  0  0  0  0
    8.2814   -7.9602    8.7229 H   0  0  0  0  0  0  0  0  0  0  0  0
    5.8237   -6.6343    9.7652 H   0  0  0  0  0  0  0  0  0  0  0  0
    6.1364   -8.3028    9.3681 H   0  0  0  0  0  0  0  0  0  0  0  0
    6.3244   -6.0040    7.3211 H   0  0  0  0  0  0  0  0  0  0  0  0
    6.3607   -9.0219    6.8800 H   0  0  0  0  0  0  0  0  0  0  0  0
    7.6879   -7.8926    6.5828 H   0  0  0  0  0  0  0  0  0  0  0  0
    6.2367   -7.7829    5.6105 H   0  0  0  0  0  0  0  0  0  0  0  0
    4.0227   -7.9086    7.8629 H   0  0  0  0  0  0  0  0  0  0  0  0
    4.1549   -6.7929    6.4824 H   0  0  0  0  0  0  0  0  0  0  0  0
    4.0654   -6.1535    8.1270 H   0  0  0  0  0  0  0  0  0  0  0  0
    6.3236   -4.7375    9.2194 H   0  0  0  0  0  0  0  0  0  0  0  0
    6.8777   -3.5412    8.0688 H   0  0  0  0  0  0  0  0  0  0  0  0
    7.0292   -3.2681    9.8398 H   0  0  0  0  0  0  0  0  0  0  0  0
    9.8764   -3.9654   10.2178 H   0  0  0  0  0  0  0  0  0  0  0  0
   11.5958   -3.3282    8.4528 H   0  0  0  0  0  0  0  0  0  0  0  0
   11.7116   -6.1590    8.6725 H   0  0  0  0  0  0  0  0  0  0  0  0
   11.8583   -5.0116   10.0450 H   0  0  0  0  0  0  0  0  0  0  0  0
   12.9101   -4.8655    8.6682 H   0  0  0  0  0  0  0  0  0  0  0  0
   10.3767   -5.0363    6.3279 H   0  0  0  0  0  0  0  0  0  0  0  0
   11.6337   -3.8369    6.2943 H   0  0  0  0  0  0  0  0  0  0  0  0
    9.9434   -3.3551    6.5377 H   0  0  0  0  0  0  0  0  0  0  0  0
   12.6423   -1.6317    8.3101 H   0  0  0  0  0  0  0  0  0  0  0  0
   11.7242   -0.1919    7.8943 H   0  0  0  0  0  0  0  0  0  0  0  0
   11.1636   -1.7522    7.3405 H   0  0  0  0  0  0  0  0  0  0  0  0
  1  2  1  0  0  0  0
  1 88  1  0  0  0  0
  1 89  1  0  0  0  0
  1 90  1  0  0  0  0
  2  3  1  0  0  0  0
  2 91  1  0  0  0  0
  2 92  1  0  0  0  0
  3  4  2  0  0  0  0
  3 93  1  0  0  0  0
  4  5  1  0  0  0  0
  4 94  1  0  0  0  0
  5  6  1  0  0  0  0
  5 95  1  0  0  0  0
  5 96  1  0  0  0  0
  6  7  1  0  0  0  0
  6  8  1  0  0  0  0
  6 97  1  1  0  0  0
  7 98  1  0  0  0  0
  7 99  1  0  0  0  0
  7100  1  0  0  0  0
  8  9  1  0  0  0  0
  8 10  1  0  0  0  0
  8101  1  6  0  0  0
  9102  1  0  0  0  0
 10 11  1  0  0  0  0
 10 86  1  0  0  0  0
 10103  1  6  0  0  0
 11 12  2  0  0  0  0
 11 13  1  0  0  0  0
 13 14  1  0  0  0  0
 13104  1  0  0  0  0
 14 15  1  0  0  0  0
 14 18  1  0  0  0  0
 14105  1  6  0  0  0
 15 16  1  0  0  0  0
 15 17  1  0  0  0  0
 15106  1  0  0  0  0
 16107  1  0  0  0  0
 16108  1  0  0  0  0
 16109  1  0  0  0  0
 17110  1  0  0  0  0
 17111  1  0  0  0  0
 17112  1  0  0  0  0
 18 19  2  0  0  0  0
 18 20  1  0  0  0  0
 20 21  1  0  0  0  0
 20 22  1  0  0  0  0
 21113  1  0  0  0  0
 21114  1  0  0  0  0
 21115  1  0  0  0  0
 22 23  1  0  0  0  0
 22116  1  0  0  0  0
 22117  1  0  0  0  0
 23 24  2  0  0  0  0
 23 25  1  0  0  0  0
 25 26  1  0  0  0  0
 25 27  1  0  0  0  0
 26118  1  0  0  0  0
 26119  1  0  0  0  0
 26120  1  0  0  0  0
 27 32  1  0  0  0  0
 27 28  1  0  0  0  0
 27121  1  6  0  0  0
 28 29  1  0  0  0  0
 28122  1  0  0  0  0
 28123  1  0  0  0  0
 29 30  1  0  0  0  0
 29 31  1  0  0  0  0
 29124  1  0  0  0  0
 30125  1  0  0  0  0
 30126  1  0  0  0  0
 30127  1  0  0  0  0
 31128  1  0  0  0  0
 31129  1  0  0  0  0
 31130  1  0  0  0  0
 32 33  2  0  0  0  0
 32 34  1  0  0  0  0
 34 35  1  0  0  0  0
 34131  1  0  0  0  0
 35 39  1  0  0  0  0
 35 36  1  0  0  0  0
 35132  1  1  0  0  0
 36 37  1  0  0  0  0
 36 38  1  0  0  0  0
 36133  1  0  0  0  0
 37134  1  0  0  0  0
 37135  1  0  0  0  0
 37136  1  0  0  0  0
 38137  1  0  0  0  0
 38138  1  0  0  0  0
 38139  1  0  0  0  0
 39 40  2  0  0  0  0
 39 41  1  0  0  0  0
 41 42  1  0  0  0  0
 41 43  1  0  0  0  0
 42140  1  0  0  0  0
 42141  1  0  0  0  0
 42142  1  0  0  0  0
 43 48  1  0  0  0  0
 43 44  1  0  0  0  0
 43143  1  1  0  0  0
 44 45  1  0  0  0  0
 44144  1  0  0  0  0
 44145  1  0  0  0  0
 45 46  1  0  0  0  0
 45 47  1  0  0  0  0
 45146  1  0  0  0  0
 46147  1  0  0  0  0
 46148  1  0  0  0  0
 46149  1  0  0  0  0
 47150  1  0  0  0  0
 47151  1  0  0  0  0
 47152  1  0  0  0  0
 48 49  2  0  0  0  0
 48 50  1  0  0  0  0
 50 51  1  0  0  0  0
 50153  1  0  0  0  0
 51 52  1  0  0  0  0
 51 53  1  0  0  0  0
 51154  1  1  0  0  0
 52155  1  0  0  0  0
 52156  1  0  0  0  0
 52157  1  0  0  0  0
 53 54  2  0  0  0  0
 53 55  1  0  0  0  0
 55 56  1  0  0  0  0
 55158  1  0  0  0  0
 56 58  1  0  0  0  0
 56 57  1  0  0  0  0
 56159  1  1  0  0  0
 57160  1  0  0  0  0
 57161  1  0  0  0  0
 57162  1  0  0  0  0
 58 59  2  0  0  0  0
 58 60  1  0  0  0  0
 60 61  1  0  0  0  0
 60 62  1  0  0  0  0
 61163  1  0  0  0  0
 61164  1  0  0  0  0
 61165  1  0  0  0  0
 62 63  1  0  0  0  0
 62 67  1  0  0  0  0
 62166  1  1  0  0  0
 63 64  1  0  0  0  0
 63167  1  0  0  0  0
 63168  1  0  0  0  0
 64 65  1  0  0  0  0
 64 66  1  0  0  0  0
 64169  1  0  0  0  0
 65170  1  0  0  0  0
 65171  1  0  0  0  0
 65172  1  0  0  0  0
 66173  1  0  0  0  0
 66174  1  0  0  0  0
 66175  1  0  0  0  0
 67 68  2  0  0  0  0
 67 69  1  0  0  0  0
 69 70  1  0  0  0  0
 69 71  1  0  0  0  0
 70176  1  0  0  0  0
 70177  1  0  0  0  0
 70178  1  0  0  0  0
 71 72  1  0  0  0  0
 71 76  1  0  0  0  0
 71179  1  6  0  0  0
 72 73  1  0  0  0  0
 72180  1  0  0  0  0
 72181  1  0  0  0  0
 73 74  1  0  0  0  0
 73 75  1  0  0  0  0
 73182  1  0  0  0  0
 74183  1  0  0  0  0
 74184  1  0  0  0  0
 74185  1  0  0  0  0
 75186  1  0  0  0  0
 75187  1  0  0  0  0
 75188  1  0  0  0  0
 76 77  2  0  0  0  0
 76 78  1  0  0  0  0
 78 79  1  0  0  0  0
 78 80  1  0  0  0  0
 79189  1  0  0  0  0
 79190  1  0  0  0  0
 79191  1  0  0  0  0
 80 81  1  0  0  0  0
 80 84  1  0  0  0  0
 80192  1  1  0  0  0
 81 82  1  0  0  0  0
 81 83  1  0  0  0  0
 81193  1  0  0  0  0
 82194  1  0  0  0  0
 82195  1  0  0  0  0
 82196  1  0  0  0  0
 83197  1  0  0  0  0
 83198  1  0  0  0  0
 83199  1  0  0  0  0
 84 85  2  0  0  0  0
 84 86  1  0  0  0  0
 86 87  1  0  0  0  0
 87200  1  0  0  0  0
 87201  1  0  0  0  0
 87202  1  0  0  0  0
M  END
>  <Energy>
874.616

$$$$