56945196
  -OEChem-03242010093D

 55 57  0     0  0  0  0  0  0999 V2000
   -6.6282   -1.8905    1.1556 O   0  0  0  0  0  0  0  0  0  0  0  0
   -5.3804    2.2326   -0.9379 O   0  0  0  0  0  0  0  0  0  0  0  0
   -7.3233    0.6088    0.1848 O   0  0  0  0  0  0  0  0  0  0  0  0
   -1.7790   -2.3749   -0.1523 O   0  0  0  0  0  0  0  0  0  0  0  0
    0.4351    2.7522   -1.1339 O   0  5  0  0  0  0  0  0  0  0  0  0
    0.4960    2.6483    1.0581 O   0  0  0  0  0  0  0  0  0  0  0  0
    8.7832    0.5721    1.3789 O   0  0  0  0  0  0  0  0  0  0  0  0
   -1.0128   -0.1527   -0.1328 N   0  0  0  0  0  0  0  0  0  0  0  0
    0.6898    2.1401   -0.0707 N   0  3  0  0  0  0  0  0  0  0  0  0
    3.1458   -0.6312   -0.2692 C   0  0  0  0  0  0  0  0  0  0  0  0
    4.5810   -0.8078   -0.3167 C   0  0  0  0  0  0  0  0  0  0  0  0
    0.3781   -0.2928   -0.1774 C   0  0  0  0  0  0  0  0  0  0  0  0
    1.2182    0.8204   -0.1479 C   0  0  0  0  0  0  0  0  0  0  0  0
    2.6021    0.6513   -0.1937 C   0  0  0  0  0  0  0  0  0  0  0  0
    2.3056   -1.7443   -0.2990 C   0  0  0  0  0  0  0  0  0  0  0  0
    0.9218   -1.5752   -0.2530 C   0  0  0  0  0  0  0  0  0  0  0  0
   -3.3872   -0.6976   -0.0421 C   0  0  0  0  0  0  0  0  0  0  0  0
    5.4189    0.1162    0.3078 C   0  0  0  0  0  0  0  0  0  0  0  0
    5.1269   -1.9017   -0.9885 C   0  0  0  0  0  0  0  0  0  0  0  0
   -1.9785   -1.1651   -0.1231 C   0  0  0  0  0  0  0  0  0  0  0  0
    6.8026   -0.0537    0.2607 C   0  0  0  0  0  0  0  0  0  0  0  0
   -3.7336    0.5615   -0.5322 C   0  0  0  0  0  0  0  0  0  0  0  0
   -4.3630   -1.5182    0.5240 C   0  0  0  0  0  0  0  0  0  0  0  0
   -5.6849   -1.0795    0.6001 C   0  0  0  0  0  0  0  0  0  0  0  0
   -5.0555    1.0004   -0.4559 C   0  0  0  0  0  0  0  0  0  0  0  0
   -6.0312    0.1799    0.1103 C   0  0  0  0  0  0  0  0  0  0  0  0
    6.5106   -2.0715   -1.0358 C   0  0  0  0  0  0  0  0  0  0  0  0
    7.3486   -1.1477   -0.4110 C   0  0  0  0  0  0  0  0  0  0  0  0
    7.6768    0.9089    0.9122 C   0  0  0  0  0  0  0  0  0  0  0  0
    7.2529    2.3681    1.0407 C   0  0  0  0  0  0  0  0  0  0  0  0
   -7.3114   -2.7844    0.2790 C   0  0  0  0  0  0  0  0  0  0  0  0
   -4.3232    3.0075   -1.5004 C   0  0  0  0  0  0  0  0  0  0  0  0
   -7.7016    1.3204    1.3611 C   0  0  0  0  0  0  0  0  0  0  0  0
    3.2289    1.5403   -0.2017 H   0  0  0  0  0  0  0  0  0  0  0  0
    2.6851   -2.7622   -0.3273 H   0  0  0  0  0  0  0  0  0  0  0  0
    0.3486   -2.4900   -0.2795 H   0  0  0  0  0  0  0  0  0  0  0  0
   -1.3323    0.8054   -0.0353 H   0  0  0  0  0  0  0  0  0  0  0  0
    5.0108    0.9472    0.8767 H   0  0  0  0  0  0  0  0  0  0  0  0
    4.5165   -2.6295   -1.5161 H   0  0  0  0  0  0  0  0  0  0  0  0
   -2.9693    1.1558   -1.0157 H   0  0  0  0  0  0  0  0  0  0  0  0
   -4.1060   -2.4997    0.9153 H   0  0  0  0  0  0  0  0  0  0  0  0
    6.9364   -2.9185   -1.5658 H   0  0  0  0  0  0  0  0  0  0  0  0
    8.4244   -1.2937   -0.4631 H   0  0  0  0  0  0  0  0  0  0  0  0
    6.7060    2.5093    1.9761 H   0  0  0  0  0  0  0  0  0  0  0  0
    6.6363    2.6705    0.1899 H   0  0  0  0  0  0  0  0  0  0  0  0
    8.1461    3.0002    1.0397 H   0  0  0  0  0  0  0  0  0  0  0  0
   -7.8511   -2.2288   -0.4944 H   0  0  0  0  0  0  0  0  0  0  0  0
   -6.6059   -3.4825   -0.1827 H   0  0  0  0  0  0  0  0  0  0  0  0
   -8.0343   -3.3557    0.8677 H   0  0  0  0  0  0  0  0  0  0  0  0
   -3.5537    3.2448   -0.7576 H   0  0  0  0  0  0  0  0  0  0  0  0
   -3.9096    2.5354   -2.3981 H   0  0  0  0  0  0  0  0  0  0  0  0
   -4.7587    3.9608   -1.8181 H   0  0  0  0  0  0  0  0  0  0  0  0
   -8.7560    1.5953    1.2706 H   0  0  0  0  0  0  0  0  0  0  0  0
   -7.1096    2.2352    1.4654 H   0  0  0  0  0  0  0  0  0  0  0  0
   -7.5794    0.6910    2.2482 H   0  0  0  0  0  0  0  0  0  0  0  0
  1 24  1  0  0  0  0
  1 31  1  0  0  0  0
  2 25  1  0  0  0  0
  2 32  1  0  0  0  0
  3 26  1  0  0  0  0
  3 33  1  0  0  0  0
  4 20  2  0  0  0  0
  5  9  1  0  0  0  0
  6  9  2  0  0  0  0
  7 29  2  0  0  0  0
  8 12  1  0  0  0  0
  8 20  1  0  0  0  0
  8 37  1  0  0  0  0
  9 13  1  0  0  0  0
 10 11  1  0  0  0  0
 10 14  2  0  0  0  0
 10 15  1  0  0  0  0
 11 18  2  0  0  0  0
 11 19  1  0  0  0  0
 12 13  2  0  0  0  0
 12 16  1  0  0  0  0
 13 14  1  0  0  0  0
 14 34  1  0  0  0  0
 15 16  2  0  0  0  0
 15 35  1  0  0  0  0
 16 36  1  0  0  0  0
 17 20  1  0  0  0  0
 17 22  2  0  0  0  0
 17 23  1  0  0  0  0
 18 21  1  0  0  0  0
 18 38  1  0  0  0  0
 19 27  2  0  0  0  0
 19 39  1  0  0  0  0
 21 28  2  0  0  0  0
 21 29  1  0  0  0  0
 22 25  1  0  0  0  0
 22 40  1  0  0  0  0
 23 24  2  0  0  0  0
 23 41  1  0  0  0  0
 24 26  1  0  0  0  0
 25 26  2  0  0  0  0
 27 28  1  0  0  0  0
 27 42  1  0  0  0  0
 28 43  1  0  0  0  0
 29 30  1  0  0  0  0
 30 44  1  0  0  0  0
 30 45  1  0  0  0  0
 30 46  1  0  0  0  0
 31 47  1  0  0  0  0
 31 48  1  0  0  0  0
 31 49  1  0  0  0  0
 32 50  1  0  0  0  0
 32 51  1  0  0  0  0
 32 52  1  0  0  0  0
 33 53  1  0  0  0  0
 33 54  1  0  0  0  0
 33 55  1  0  0  0  0
M  CHG  2   5  -1   9   1
M  END
> <PUBCHEM_COMPOUND_CID>
56945196

> <PUBCHEM_CONFORMER_RMSD>
1

> <PUBCHEM_CONFORMER_DIVERSEORDER>
1
21
10
6
25
18
8
11
7
22
23
13
9
16
3
12
20
5
4
24
17
2
14
15
19

> <PUBCHEM_MMFF94_PARTIAL_CHARGES>
41
1 -0.36
12 0.12
13 0.13
14 -0.15
15 -0.15
16 -0.15
17 0.09
18 -0.15
19 -0.15
2 -0.36
20 0.54
21 0.09
22 -0.15
23 -0.15
24 0.08
25 0.08
26 0.08
27 -0.15
28 -0.15
29 0.42
3 -0.36
30 0.06
31 0.28
32 0.28
33 0.28
34 0.15
35 0.15
36 0.15
37 0.37
38 0.15
39 0.15
4 -0.57
40 0.15
41 0.15
42 0.15
43 0.15
5 -0.52
6 -0.52
7 -0.57
8 -0.55
9 0.91

> <PUBCHEM_EFFECTIVE_ROTOR_COUNT>
9

> <PUBCHEM_PHARMACOPHORE_FEATURES>
12
1 1 acceptor
1 2 acceptor
1 3 acceptor
1 4 acceptor
1 5 acceptor
1 5 anion
1 6 acceptor
1 7 acceptor
1 8 donor
6 10 12 13 14 15 16 rings
6 11 18 19 21 27 28 rings
6 17 22 23 24 25 26 rings

> <PUBCHEM_HEAVY_ATOM_COUNT>
33

> <PUBCHEM_ATOM_DEF_STEREO_COUNT>
0

> <PUBCHEM_ATOM_UDEF_STEREO_COUNT>
0

> <PUBCHEM_BOND_DEF_STEREO_COUNT>
0

> <PUBCHEM_BOND_UDEF_STEREO_COUNT>
0

> <PUBCHEM_ISOTOPIC_ATOM_COUNT>
0

> <PUBCHEM_COMPONENT_COUNT>
1

> <PUBCHEM_CACTVS_TAUTO_COUNT>
4

> <PUBCHEM_CONFORMER_ID>
0364EA2C00000001

> <PUBCHEM_MMFF94_ENERGY>
148.5411

> <PUBCHEM_FEATURE_SELFOVERLAP>
60.992

> <PUBCHEM_SHAPE_FINGERPRINT>
10 15 18408038542019898866
10835480 77 18342732997380249164
11181472 205 16271381689959740226
11315181 36 17989205937617901587
12516196 113 18343303673726595810
12645989 146 18338802333764181063
13383668 251 17986374801674841801
13811026 1 18409727382693999141
14028597 1 17168414974864095200
14251764 18 18335422404153461214
14849402 71 17917151731317933296
14856354 85 16298113085606029739
14933364 13 18411702071508182718
15131766 46 14977951525325471898
15183329 4 16298389058893008378
15419008 91 18335687335365034652
15461852 350 16271922723517651317
15849732 13 18273497879154447351
16120349 18 18131346440636964800
18608769 82 18408604777734181683
19315958 150 18060702810722207358
21130935 74 18341618091962774875
21267235 1 18410301310584264383
21315759 40 15864070983363091026
21521721 280 18131631188700573266
21792934 111 18342451518435365658
22149856 69 18270696289451738408
23559900 14 18131061666835116881
23576562 1 12606818402677627762
24771293 8 18269264837662232868
24771750 20 18049730908368714420
335352 9 18411421709054518223
3383291 50 18114185284647268267
350125 39 18408047321165199437
4073 2 18334860571372104634
4093350 32 17132119039896054492
44280117 145 18201718518427149687
444735 82 18336829788571636460
504843 32 17275097379334393727
636775 72 18200879479365018657
6691757 9 15195566827945272199
9953998 17 18408327671076561531

> <PUBCHEM_SHAPE_MULTIPOLES>
628.08
26.09
2.99
1.07
8.49
0.96
0.02
-0.4
7.08
-1.9
-0.4
-0.01
0.44
3.25

> <PUBCHEM_SHAPE_SELFOVERLAP>
1361.322

> <PUBCHEM_SHAPE_VOLUME>
344.6

> <PUBCHEM_COORDINATE_TYPE>
2
5
10

$$$$