52
 OpenBabel03292021473D

200201  0  0  1  0  0  0  0  0999 V2000
    3.2544    2.2974    3.0286 C   0  0  0  0  0  0  0  0  0  0  0  0
    3.1553    1.8597    4.4967 C   0  0  0  0  0  0  0  0  0  0  0  0
    4.2825    1.7951    5.5537 C   0  0  0  0  0  0  0  0  0  0  0  0
    5.6450    1.7982    5.5728 C   0  0  0  0  0  0  0  0  0  0  0  0
    6.5415    1.7291    7.0261 C   0  0  0  0  0  0  0  0  0  0  0  0
    8.1689    1.2139    7.4672 C   0  0  1  0  0  0  0  0  0  0  0  0
    8.9567    1.3643    6.1304 C   0  0  0  0  0  0  0  0  0  0  0  0
    9.0438    1.8245    8.9349 C   0  0  1  0  0  0  0  0  0  0  0  0
    8.1821    2.7580    9.5759 O   0  0  0  0  0  0  0  0  0  0  0  0
    9.8581    0.7332   10.1529 C   0  0  1  0  0  0  0  0  0  0  0  0
   10.4207    0.5190   11.9613 C   0  0  0  0  0  0  0  0  0  0  0  0
    9.5044    0.4837   12.8084 O   0  0  0  0  0  0  0  0  0  0  0  0
   11.7670    0.1763   12.5718 N   0  0  0  0  0  0  0  0  0  0  0  0
   12.2050   -0.2075   14.2556 C   0  0  1  0  0  0  0  0  0  0  0  0
   12.2371    1.0549   15.2101 C   0  0  0  0  0  0  0  0  0  0  0  0
   12.6533    0.8752   16.7044 C   0  0  0  0  0  0  0  0  0  0  0  0
   13.1346   -1.4856   15.0713 C   0  0  0  0  0  0  0  0  0  0  0  0
   12.4236   -2.3848   15.5590 O   0  0  0  0  0  0  0  0  0  0  0  0
   14.5071   -1.5709   15.4423 N   0  0  0  0  0  0  0  0  0  0  0  0
   15.3401   -0.4513   15.8644 C   0  0  0  0  0  0  0  0  0  0  0  0
   15.2169   -2.8818   15.7197 C   0  0  0  0  0  0  0  0  0  0  0  0
   15.5537   -4.0912   16.7877 C   0  0  0  0  0  0  0  0  0  0  0  0
   16.5598   -4.7646   16.6020 O   0  0  0  0  0  0  0  0  0  0  0  0
   14.6027   -4.5349   17.7088 N   0  0  0  0  0  0  0  0  0  0  0  0
   14.0625   -3.6162   18.6706 C   0  0  0  0  0  0  0  0  0  0  0  0
   14.4925   -6.0377   18.0234 C   0  0  1  0  0  0  0  0  0  0  0  0
   14.1336   -6.8949   16.7882 C   0  0  0  0  0  0  0  0  0  0  0  0
   13.7940   -6.1536   15.5247 C   0  0  0  0  0  0  0  0  0  0  0  0
   14.6879   -6.1267   14.4382 C   0  0  0  0  0  0  0  0  0  0  0  0
   14.4026   -5.3337   13.3311 C   0  0  0  0  0  0  0  0  0  0  0  0
   13.2253   -4.5892   13.3003 C   0  0  0  0  0  0  0  0  0  0  0  0
   12.3002   -4.6895   14.3355 C   0  0  0  0  0  0  0  0  0  0  0  0
   12.5889   -5.4477   15.4603 C   0  0  0  0  0  0  0  0  0  0  0  0
   15.4788   -6.5657   19.1510 C   0  0  0  0  0  0  0  0  0  0  0  0
   15.6447   -5.8633   20.1643 O   0  0  0  0  0  0  0  0  0  0  0  0
   16.0997   -7.7806   19.2353 N   0  0  0  0  0  0  0  0  0  0  0  0
   16.3577   -8.9087   18.2940 C   0  0  2  0  0  0  0  0  0  0  0  0
   17.1934   -8.3673   17.1064 C   0  0  0  0  0  0  0  0  0  0  0  0
   17.3207   -9.2947   15.9060 C   0  0  0  0  0  0  0  0  0  0  0  0
   18.5919   -7.9153   17.5672 C   0  0  0  0  0  0  0  0  0  0  0  0
   14.9815   -9.6489   18.1171 C   0  0  0  0  0  0  0  0  0  0  0  0
   13.9538   -9.0488   18.4897 O   0  0  0  0  0  0  0  0  0  0  0  0
   14.8359  -10.9254   17.5908 N   0  0  0  0  0  0  0  0  0  0  0  0
   15.9330  -11.8819   17.4878 C   0  0  0  0  0  0  0  0  0  0  0  0
   13.4258  -11.4361   17.4044 C   0  0  2  0  0  0  0  0  0  0  0  0
   12.8780  -12.1901   18.6495 C   0  0  0  0  0  0  0  0  0  0  0  0
   12.7165  -11.3926   19.9608 C   0  0  0  0  0  0  0  0  0  0  0  0
   11.6345  -10.3123   19.8734 C   0  0  0  0  0  0  0  0  0  0  0  0
   12.3579  -12.3508   21.1012 C   0  0  0  0  0  0  0  0  0  0  0  0
   13.2423  -12.4315   16.2264 C   0  0  0  0  0  0  0  0  0  0  0  0
   13.9835  -13.4126   16.0750 O   0  0  0  0  0  0  0  0  0  0  0  0
   12.1899  -12.3549   15.3795 N   0  0  0  0  0  0  0  0  0  0  0  0
   11.3318  -11.2304   14.9479 C   0  0  1  0  0  0  0  0  0  0  0  0
   11.1585  -11.4164   13.4460 C   0  0  0  0  0  0  0  0  0  0  0  0
   10.0654  -11.0653   15.8532 C   0  0  0  0  0  0  0  0  0  0  0  0
   10.1510  -11.3472   17.0577 O   0  0  0  0  0  0  0  0  0  0  0  0
    8.9016  -10.4350   15.5133 N   0  0  0  0  0  0  0  0  0  0  0  0
    7.9767  -10.5885   14.3637 C   0  0  2  0  0  0  0  0  0  0  0  0
    8.0353  -11.9529   13.6781 C   0  0  0  0  0  0  0  0  0  0  0  0
    7.8633   -9.3779   13.3869 C   0  0  0  0  0  0  0  0  0  0  0  0
    7.8141   -9.5109   12.1666 O   0  0  0  0  0  0  0  0  0  0  0  0
    7.6199   -8.1414   14.0002 N   0  0  0  0  0  0  0  0  0  0  0  0
    6.2092   -7.8947   14.2786 C   0  0  0  0  0  0  0  0  0  0  0  0
    8.3455   -6.9667   13.4583 C   0  0  1  0  0  0  0  0  0  0  0  0
    9.8595   -7.0710   13.7456 C   0  0  0  0  0  0  0  0  0  0  0  0
   10.7095   -8.2308   13.1402 C   0  0  0  0  0  0  0  0  0  0  0  0
   10.6862   -8.6090   11.6471 C   0  0  0  0  0  0  0  0  0  0  0  0
   12.1793   -8.0614   13.4799 C   0  0  0  0  0  0  0  0  0  0  0  0
    7.7612   -6.3658   12.1123 C   0  0  0  0  0  0  0  0  0  0  0  0
    6.6229   -5.8888   12.1181 O   0  0  0  0  0  0  0  0  0  0  0  0
    8.5071   -6.4612   10.9516 N   0  0  0  0  0  0  0  0  0  0  0  0
    9.8273   -5.9494   11.0349 C   0  0  0  0  0  0  0  0  0  0  0  0
    7.9741   -6.2840    9.5588 C   0  0  1  0  0  0  0  0  0  0  0  0
    6.4905   -6.6194    9.3647 C   0  0  0  0  0  0  0  0  0  0  0  0
    5.9796   -6.4439    7.9270 C   0  0  0  0  0  0  0  0  0  0  0  0
    6.5601   -7.5031    6.9934 C   0  0  0  0  0  0  0  0  0  0  0  0
    4.4501   -6.5064    7.9259 C   0  0  0  0  0  0  0  0  0  0  0  0
    8.6116   -4.9745    8.8866 C   0  0  0  0  0  0  0  0  0  0  0  0
    9.3865   -5.0510    7.9330 O   0  0  0  0  0  0  0  0  0  0  0  0
    8.4568   -3.8013    9.5996 N   0  0  0  0  0  0  0  0  0  0  0  0
    7.0554   -3.3737    9.7553 C   0  0  0  0  0  0  0  0  0  0  0  0
    9.5889   -2.8156    9.9166 C   0  0  1  0  0  0  0  0  0  0  0  0
   11.1642   -3.0430    9.4972 C   0  0  0  0  0  0  0  0  0  0  0  0
   12.2346   -2.0217   10.0449 C   0  0  0  0  0  0  0  0  0  0  0  0
   11.8681   -4.3186    9.9638 C   0  0  0  0  0  0  0  0  0  0  0  0
    9.0944   -1.4124    9.5411 C   0  0  0  0  0  0  0  0  0  0  0  0
    7.9258   -1.0385    9.5834 O   0  0  0  0  0  0  0  0  0  0  0  0
   10.1112   -0.5041    9.4013 N   0  0  0  0  0  0  0  0  0  0  0  0
   10.6580   -0.4354    8.0292 C   0  0  0  0  0  0  0  0  0  0  0  0
    2.2322    2.4292    2.6290 H   0  0  0  0  0  0  0  0  0  0  0  0
    3.7224    1.5436    2.3891 H   0  0  0  0  0  0  0  0  0  0  0  0
    3.7549    3.2594    2.8996 H   0  0  0  0  0  0  0  0  0  0  0  0
    2.6578    0.8777    4.4859 H   0  0  0  0  0  0  0  0  0  0  0  0
    2.4008    2.5394    4.9248 H   0  0  0  0  0  0  0  0  0  0  0  0
    3.8211    1.7111    6.5356 H   0  0  0  0  0  0  0  0  0  0  0  0
    6.1931    1.8443    4.6398 H   0  0  0  0  0  0  0  0  0  0  0  0
    6.9387    2.6890    6.6997 H   0  0  0  0  0  0  0  0  0  0  0  0
    6.3360    0.6635    6.8685 H   0  0  0  0  0  0  0  0  0  0  0  0
    8.0455    0.1433    7.6353 H   0  0  0  0  0  0  0  0  0  0  0  0
    9.2991    2.3831    5.9838 H   0  0  0  0  0  0  0  0  0  0  0  0
    8.3235    1.0907    5.2766 H   0  0  0  0  0  0  0  0  0  0  0  0
    9.8142    0.6975    6.0271 H   0  0  0  0  0  0  0  0  0  0  0  0
    9.8819    2.4028    8.5223 H   0  0  0  0  0  0  0  0  0  0  0  0
    7.7781    3.2933    8.8772 H   0  0  0  0  0  0  0  0  0  0  0  0
    8.8495    0.6115   10.5907 H   0  0  0  0  0  0  0  0  0  0  0  0
   12.5321    0.0175   11.9310 H   0  0  0  0  0  0  0  0  0  0  0  0
   11.2147   -0.6342   14.4952 H   0  0  0  0  0  0  0  0  0  0  0  0
   12.8789    1.8265   14.7777 H   0  0  0  0  0  0  0  0  0  0  0  0
   11.2203    1.4602   15.2464 H   0  0  0  0  0  0  0  0  0  0  0  0
   12.1274    1.5862   17.3523 H   0  0  0  0  0  0  0  0  0  0  0  0
   13.7062    1.1244   16.8689 H   0  0  0  0  0  0  0  0  0  0  0  0
   12.4705   -0.1217   17.1213 H   0  0  0  0  0  0  0  0  0  0  0  0
   15.3057   -0.4044   16.9526 H   0  0  0  0  0  0  0  0  0  0  0  0
   15.0144    0.4796   15.4036 H   0  0  0  0  0  0  0  0  0  0  0  0
   16.3797   -0.6216   15.5852 H   0  0  0  0  0  0  0  0  0  0  0  0
   16.2514   -2.6717   15.4313 H   0  0  0  0  0  0  0  0  0  0  0  0
   14.8628   -3.4848   14.8762 H   0  0  0  0  0  0  0  0  0  0  0  0
   13.3093   -2.9916   18.1819 H   0  0  0  0  0  0  0  0  0  0  0  0
   14.8702   -2.9817   19.0510 H   0  0  0  0  0  0  0  0  0  0  0  0
   13.6019   -4.1400   19.5140 H   0  0  0  0  0  0  0  0  0  0  0  0
   13.5417   -6.0820   18.5879 H   0  0  0  0  0  0  0  0  0  0  0  0
   13.2273   -7.4798   17.0202 H   0  0  0  0  0  0  0  0  0  0  0  0
   14.8626   -7.6464   16.5351 H   0  0  0  0  0  0  0  0  0  0  0  0
   15.6292   -6.6645   14.4856 H   0  0  0  0  0  0  0  0  0  0  0  0
   15.1215   -5.2478   12.5195 H   0  0  0  0  0  0  0  0  0  0  0  0
   13.0522   -3.8760   12.5054 H   0  0  0  0  0  0  0  0  0  0  0  0
   11.3866   -4.0982   14.3231 H   0  0  0  0  0  0  0  0  0  0  0  0
   11.9010   -5.4504   16.3025 H   0  0  0  0  0  0  0  0  0  0  0  0
   16.5523   -7.8764   20.1354 H   0  0  0  0  0  0  0  0  0  0  0  0
   16.9870   -9.6017   18.8688 H   0  0  0  0  0  0  0  0  0  0  0  0
   16.7437   -7.4449   16.7362 H   0  0  0  0  0  0  0  0  0  0  0  0
   17.9624  -10.1550   16.1229 H   0  0  0  0  0  0  0  0  0  0  0  0
   17.7708   -8.7539   15.0668 H   0  0  0  0  0  0  0  0  0  0  0  0
   16.3440   -9.6493   15.5667 H   0  0  0  0  0  0  0  0  0  0  0  0
   19.2057   -8.7610   17.8920 H   0  0  0  0  0  0  0  0  0  0  0  0
   18.5285   -7.2021   18.3972 H   0  0  0  0  0  0  0  0  0  0  0  0
   19.1154   -7.4037   16.7523 H   0  0  0  0  0  0  0  0  0  0  0  0
   16.8783  -11.4662   17.8350 H   0  0  0  0  0  0  0  0  0  0  0  0
   16.0575  -12.1827   16.4414 H   0  0  0  0  0  0  0  0  0  0  0  0
   15.7108  -12.7592   18.1004 H   0  0  0  0  0  0  0  0  0  0  0  0
   12.7871  -10.5735   17.1974 H   0  0  0  0  0  0  0  0  0  0  0  0
   11.9047  -12.6357   18.4024 H   0  0  0  0  0  0  0  0  0  0  0  0
   13.5335  -13.0474   18.8475 H   0  0  0  0  0  0  0  0  0  0  0  0
   13.6753  -10.9256   20.2157 H   0  0  0  0  0  0  0  0  0  0  0  0
   10.6315  -10.7483   19.8660 H   0  0  0  0  0  0  0  0  0  0  0  0
   11.7197   -9.6907   18.9784 H   0  0  0  0  0  0  0  0  0  0  0  0
   11.7026   -9.6457   20.7428 H   0  0  0  0  0  0  0  0  0  0  0  0
   11.3675  -12.7893   20.9555 H   0  0  0  0  0  0  0  0  0  0  0  0
   12.3513  -11.8189   22.0610 H   0  0  0  0  0  0  0  0  0  0  0  0
   13.0809  -13.1654   21.1766 H   0  0  0  0  0  0  0  0  0  0  0  0
   12.1744  -13.1697   14.7759 H   0  0  0  0  0  0  0  0  0  0  0  0
   11.9075  -10.3149   15.1228 H   0  0  0  0  0  0  0  0  0  0  0  0
   11.0452  -12.4645   13.1576 H   0  0  0  0  0  0  0  0  0  0  0  0
   12.0607  -11.0600   12.9333 H   0  0  0  0  0  0  0  0  0  0  0  0
   10.3026  -10.8994   13.0295 H   0  0  0  0  0  0  0  0  0  0  0  0
    8.3852  -10.2893   16.3744 H   0  0  0  0  0  0  0  0  0  0  0  0
    6.9944  -10.5815   14.8565 H   0  0  0  0  0  0  0  0  0  0  0  0
    8.9100  -12.5394   13.9583 H   0  0  0  0  0  0  0  0  0  0  0  0
    8.0053  -11.8817   12.5873 H   0  0  0  0  0  0  0  0  0  0  0  0
    7.1726  -12.5537   13.9837 H   0  0  0  0  0  0  0  0  0  0  0  0
    5.7781   -8.7462   14.8092 H   0  0  0  0  0  0  0  0  0  0  0  0
    5.6604   -7.7865   13.3378 H   0  0  0  0  0  0  0  0  0  0  0  0
    6.0969   -6.9978   14.8919 H   0  0  0  0  0  0  0  0  0  0  0  0
    8.0641   -6.1575   14.1580 H   0  0  0  0  0  0  0  0  0  0  0  0
    9.9540   -7.1820   14.8363 H   0  0  0  0  0  0  0  0  0  0  0  0
   10.3131   -6.0915   13.5847 H   0  0  0  0  0  0  0  0  0  0  0  0
   10.3661   -9.0825   13.7026 H   0  0  0  0  0  0  0  0  0  0  0  0
   11.3583   -7.9815   11.0486 H   0  0  0  0  0  0  0  0  0  0  0  0
    9.6964   -8.5965   11.2036 H   0  0  0  0  0  0  0  0  0  0  0  0
   11.0785   -9.6136   11.4866 H   0  0  0  0  0  0  0  0  0  0  0  0
   12.5529   -7.1670   12.9904 H   0  0  0  0  0  0  0  0  0  0  0  0
   12.7943   -8.8884   13.1201 H   0  0  0  0  0  0  0  0  0  0  0  0
   12.3068   -8.0099   14.5616 H   0  0  0  0  0  0  0  0  0  0  0  0
   10.4884   -6.2907   11.7930 H   0  0  0  0  0  0  0  0  0  0  0  0
    9.7382   -4.8951   11.2676 H   0  0  0  0  0  0  0  0  0  0  0  0
   10.3284   -6.2203   10.1121 H   0  0  0  0  0  0  0  0  0  0  0  0
    8.5029   -7.0875    9.0227 H   0  0  0  0  0  0  0  0  0  0  0  0
    5.8473   -6.0369   10.0244 H   0  0  0  0  0  0  0  0  0  0  0  0
    6.3304   -7.6591    9.6853 H   0  0  0  0  0  0  0  0  0  0  0  0
    6.2659   -5.4545    7.5510 H   0  0  0  0  0  0  0  0  0  0  0  0
    6.3413   -8.5130    7.3563 H   0  0  0  0  0  0  0  0  0  0  0  0
    7.6463   -7.4015    6.9079 H   0  0  0  0  0  0  0  0  0  0  0  0
    6.1412   -7.4050    5.9872 H   0  0  0  0  0  0  0  0  0  0  0  0
    4.0888   -7.4427    8.3641 H   0  0  0  0  0  0  0  0  0  0  0  0
    4.0527   -6.4235    6.9103 H   0  0  0  0  0  0  0  0  0  0  0  0
    4.0342   -5.6788    8.5131 H   0  0  0  0  0  0  0  0  0  0  0  0
    6.3605   -4.1995    9.7886 H   0  0  0  0  0  0  0  0  0  0  0  0
    6.7652   -2.8262    8.8497 H   0  0  0  0  0  0  0  0  0  0  0  0
    6.9098   -2.7948   10.6660 H   0  0  0  0  0  0  0  0  0  0  0  0
    9.5911   -2.7792   11.0169 H   0  0  0  0  0  0  0  0  0  0  0  0
   11.2005   -3.0595    8.3998 H   0  0  0  0  0  0  0  0  0  0  0  0
   12.3591   -2.1247   11.1252 H   0  0  0  0  0  0  0  0  0  0  0  0
   12.1302   -0.9578    9.8693 H   0  0  0  0  0  0  0  0  0  0  0  0
   13.2039   -2.2247    9.5653 H   0  0  0  0  0  0  0  0  0  0  0  0
   11.6708   -4.4739   11.0192 H   0  0  0  0  0  0  0  0  0  0  0  0
   12.9624   -4.2470    9.9076 H   0  0  0  0  0  0  0  0  0  0  0  0
   11.6348   -5.1590    9.3318 H   0  0  0  0  0  0  0  0  0  0  0  0
   11.5528   -1.0399    7.9011 H   0  0  0  0  0  0  0  0  0  0  0  0
   10.9511    0.5750    7.7740 H   0  0  0  0  0  0  0  0  0  0  0  0
    9.9364   -0.8761    7.3320 H   0  0  0  0  0  0  0  0  0  0  0  0
  1  2  1  0  0  0  0
  1 90  1  0  0  0  0
  1 91  1  0  0  0  0
  1 92  1  0  0  0  0
  2  3  1  0  0  0  0
  2 93  1  0  0  0  0
  2 94  1  0  0  0  0
  3  4  2  0  0  0  0
  3 95  1  0  0  0  0
  4  5  1  0  0  0  0
  4 96  1  0  0  0  0
  5  6  1  0  0  0  0
  5 97  1  0  0  0  0
  5 98  1  0  0  0  0
  6  7  1  0  0  0  0
  6  8  1  0  0  0  0
  6 99  1  1  0  0  0
  7100  1  0  0  0  0
  7101  1  0  0  0  0
  7102  1  0  0  0  0
  8  9  1  0  0  0  0
  8 10  1  0  0  0  0
  8103  1  6  0  0  0
  9104  1  0  0  0  0
 10 11  1  0  0  0  0
 10 88  1  0  0  0  0
 10105  1  6  0  0  0
 11 12  2  0  0  0  0
 11 13  1  0  0  0  0
 13 14  1  0  0  0  0
 13106  1  0  0  0  0
 14 15  1  0  0  0  0
 14 17  1  0  0  0  0
 14107  1  6  0  0  0
 15 16  1  0  0  0  0
 15108  1  0  0  0  0
 15109  1  0  0  0  0
 16110  1  0  0  0  0
 16111  1  0  0  0  0
 16112  1  0  0  0  0
 17 18  2  0  0  0  0
 17 19  1  0  0  0  0
 19 20  1  0  0  0  0
 19 21  1  0  0  0  0
 20113  1  0  0  0  0
 20114  1  0  0  0  0
 20115  1  0  0  0  0
 21 22  1  0  0  0  0
 21116  1  0  0  0  0
 21117  1  0  0  0  0
 22 23  2  0  0  0  0
 22 24  1  0  0  0  0
 24 25  1  0  0  0  0
 24 26  1  0  0  0  0
 25118  1  0  0  0  0
 25119  1  0  0  0  0
 25120  1  0  0  0  0
 26 27  1  0  0  0  0
 26 34  1  0  0  0  0
 26121  1  1  0  0  0
 27 28  1  0  0  0  0
 27122  1  0  0  0  0
 27123  1  0  0  0  0
 28 29  1  0  0  0  0
 28 33  2  0  0  0  0
 29 30  2  0  0  0  0
 29124  1  0  0  0  0
 30 31  1  0  0  0  0
 30125  1  0  0  0  0
 31 32  2  0  0  0  0
 31126  1  0  0  0  0
 32 33  1  0  0  0  0
 32127  1  0  0  0  0
 33128  1  0  0  0  0
 34 35  2  0  0  0  0
 34 36  1  0  0  0  0
 36 37  1  0  0  0  0
 36129  1  0  0  0  0
 37 41  1  0  0  0  0
 37 38  1  0  0  0  0
 37130  1  1  0  0  0
 38 39  1  0  0  0  0
 38 40  1  0  0  0  0
 38131  1  0  0  0  0
 39132  1  0  0  0  0
 39133  1  0  0  0  0
 39134  1  0  0  0  0
 40135  1  0  0  0  0
 40136  1  0  0  0  0
 40137  1  0  0  0  0
 41 42  2  0  0  0  0
 41 43  1  0  0  0  0
 43 44  1  0  0  0  0
 43 45  1  0  0  0  0
 44138  1  0  0  0  0
 44139  1  0  0  0  0
 44140  1  0  0  0  0
 45 50  1  0  0  0  0
 45 46  1  0  0  0  0
 45141  1  6  0  0  0
 46 47  1  0  0  0  0
 46142  1  0  0  0  0
 46143  1  0  0  0  0
 47 48  1  0  0  0  0
 47 49  1  0  0  0  0
 47144  1  0  0  0  0
 48145  1  0  0  0  0
 48146  1  0  0  0  0
 48147  1  0  0  0  0
 49148  1  0  0  0  0
 49149  1  0  0  0  0
 49150  1  0  0  0  0
 50 51  2  0  0  0  0
 50 52  1  0  0  0  0
 52 53  1  0  0  0  0
 52151  1  0  0  0  0
 53 54  1  0  0  0  0
 53 55  1  0  0  0  0
 53152  1  1  0  0  0
 54153  1  0  0  0  0
 54154  1  0  0  0  0
 54155  1  0  0  0  0
 55 56  2  0  0  0  0
 55 57  1  0  0  0  0
 57 58  1  0  0  0  0
 57156  1  0  0  0  0
 58 60  1  0  0  0  0
 58 59  1  0  0  0  0
 58157  1  1  0  0  0
 59158  1  0  0  0  0
 59159  1  0  0  0  0
 59160  1  0  0  0  0
 60 61  2  0  0  0  0
 60 62  1  0  0  0  0
 62 63  1  0  0  0  0
 62 64  1  0  0  0  0
 63161  1  0  0  0  0
 63162  1  0  0  0  0
 63163  1  0  0  0  0
 64 65  1  0  0  0  0
 64 69  1  0  0  0  0
 64164  1  1  0  0  0
 65 66  1  0  0  0  0
 65165  1  0  0  0  0
 65166  1  0  0  0  0
 66 67  1  0  0  0  0
 66 68  1  0  0  0  0
 66167  1  0  0  0  0
 67168  1  0  0  0  0
 67169  1  0  0  0  0
 67170  1  0  0  0  0
 68171  1  0  0  0  0
 68172  1  0  0  0  0
 68173  1  0  0  0  0
 69 70  2  0  0  0  0
 69 71  1  0  0  0  0
 71 72  1  0  0  0  0
 71 73  1  0  0  0  0
 72174  1  0  0  0  0
 72175  1  0  0  0  0
 72176  1  0  0  0  0
 73 74  1  0  0  0  0
 73 78  1  0  0  0  0
 73177  1  6  0  0  0
 74 75  1  0  0  0  0
 74178  1  0  0  0  0
 74179  1  0  0  0  0
 75 76  1  0  0  0  0
 75 77  1  0  0  0  0
 75180  1  0  0  0  0
 76181  1  0  0  0  0
 76182  1  0  0  0  0
 76183  1  0  0  0  0
 77184  1  0  0  0  0
 77185  1  0  0  0  0
 77186  1  0  0  0  0
 78 79  2  0  0  0  0
 78 80  1  0  0  0  0
 80 81  1  0  0  0  0
 80 82  1  0  0  0  0
 81187  1  0  0  0  0
 81188  1  0  0  0  0
 81189  1  0  0  0  0
 82 83  1  0  0  0  0
 82 86  1  0  0  0  0
 82190  1  1  0  0  0
 83 84  1  0  0  0  0
 83 85  1  0  0  0  0
 83191  1  0  0  0  0
 84192  1  0  0  0  0
 84193  1  0  0  0  0
 84194  1  0  0  0  0
 85195  1  0  0  0  0
 85196  1  0  0  0  0
 85197  1  0  0  0  0
 86 87  2  0  0  0  0
 86 88  1  0  0  0  0
 88 89  1  0  0  0  0
 89198  1  0  0  0  0
 89199  1  0  0  0  0
 89200  1  0  0  0  0
M  END
>  <Energy>
917.295

$$$$