53
 OpenBabel03292021473D

198198  0  0  1  0  0  0  0  0999 V2000
    5.3732    1.2774    1.3957 C   0  0  0  0  0  0  0  0  0  0  0  0
    6.7204    1.8210    0.9648 C   0  0  0  0  0  0  0  0  0  0  0  0
    6.9993    2.4054   -0.2245 C   0  0  0  0  0  0  0  0  0  0  0  0
    8.3561    3.0306   -0.8101 C   0  0  0  0  0  0  0  0  0  0  0  0
    9.6305    3.1122   -2.0034 C   0  0  3  0  0  0  0  0  0  0  0  0
    8.8216    3.1825   -3.3445 C   0  0  0  0  0  0  0  0  0  0  0  0
   11.0313    4.2695   -2.0587 C   0  0  3  0  0  0  0  0  0  0  0  0
   10.7576    5.2639   -0.9417 C   0  0  0  0  0  0  0  0  0  0  0  0
   12.7818    4.0762   -2.7550 C   0  0  1  0  0  0  0  0  0  0  0  0
   14.6240    4.0983   -2.2652 C   0  0  0  0  0  0  0  0  0  0  0  0
   15.0107    3.3811   -1.3329 O   0  0  0  0  0  0  0  0  0  0  0  0
   15.7854    4.7399   -3.0373 N   0  0  0  0  0  0  0  0  0  0  0  0
   17.5549    4.6877   -2.7792 C   0  0  1  0  0  0  0  0  0  0  0  0
   18.1778    5.5232   -1.5459 C   0  0  0  0  0  0  0  0  0  0  0  0
   19.7036    5.8971   -1.5086 C   0  0  0  0  0  0  0  0  0  0  0  0
   18.8980    4.2394   -3.8164 C   0  0  0  0  0  0  0  0  0  0  0  0
   19.1603    3.0313   -3.8117 O   0  0  0  0  0  0  0  0  0  0  0  0
   19.8659    5.0532   -4.4703 N   0  0  0  0  0  0  0  0  0  0  0  0
   19.7868    6.5084   -4.4898 C   0  0  0  0  0  0  0  0  0  0  0  0
   20.8712    4.5328   -5.5375 C   0  0  0  0  0  0  0  0  0  0  0  0
   22.0469    3.4450   -5.9336 C   0  0  0  0  0  0  0  0  0  0  0  0
   22.4596    3.4682   -7.1001 O   0  0  0  0  0  0  0  0  0  0  0  0
   22.4823    2.4454   -5.0943 N   0  0  0  0  0  0  0  0  0  0  0  0
   22.8095    2.7692   -3.7208 C   0  0  0  0  0  0  0  0  0  0  0  0
   22.8848    1.0808   -5.6323 C   0  0  1  0  0  0  0  0  0  0  0  0
   21.8454    0.4633   -6.5705 C   0  0  0  0  0  0  0  0  0  0  0  0
   20.3549    0.3829   -6.2801 C   0  0  0  0  0  0  0  0  0  0  0  0
   19.7007    1.7314   -6.4273 C   0  0  0  0  0  0  0  0  0  0  0  0
   19.6636   -0.5242   -7.2981 C   0  0  0  0  0  0  0  0  0  0  0  0
   24.3684    0.8445   -6.2141 C   0  0  0  0  0  0  0  0  0  0  0  0
   25.3252    1.4431   -5.6939 O   0  0  0  0  0  0  0  0  0  0  0  0
   24.7303   -0.1534   -7.1293 N   0  0  0  0  0  0  0  0  0  0  0  0
   24.0019   -0.7580   -8.2945 C   0  0  1  0  0  0  0  0  0  0  0  0
   24.8092   -0.8328   -9.6195 C   0  0  0  0  0  0  0  0  0  0  0  0
   23.8957   -1.3155  -10.7677 C   0  0  0  0  0  0  0  0  0  0  0  0
   25.3811    0.5278  -10.0249 C   0  0  0  0  0  0  0  0  0  0  0  0
   23.2329   -2.0940   -8.0055 C   0  0  0  0  0  0  0  0  0  0  0  0
   22.0190   -2.1402   -8.2460 O   0  0  0  0  0  0  0  0  0  0  0  0
   23.8870   -3.2384   -7.5248 N   0  0  0  0  0  0  0  0  0  0  0  0
   24.7550   -3.9245   -8.4713 C   0  0  0  0  0  0  0  0  0  0  0  0
   23.0024   -4.1386   -6.7310 C   0  0  1  0  0  0  0  0  0  0  0  0
   22.6031   -3.4971   -5.4055 C   0  0  0  0  0  0  0  0  0  0  0  0
   23.7363   -3.0986   -4.4363 C   0  0  0  0  0  0  0  0  0  0  0  0
   23.0990   -2.4480   -3.2002 C   0  0  0  0  0  0  0  0  0  0  0  0
   24.5708   -4.3043   -4.0047 C   0  0  0  0  0  0  0  0  0  0  0  0
   21.8814   -4.8248   -7.6014 C   0  0  0  0  0  0  0  0  0  0  0  0
   22.2314   -5.4483   -8.6622 O   0  0  0  0  0  0  0  0  0  0  0  0
   20.5732   -4.8564   -7.3224 N   0  0  0  0  0  0  0  0  0  0  0  0
   19.7839   -4.4744   -6.1546 C   0  0  1  0  0  0  0  0  0  0  0  0
   18.3852   -4.0982   -6.5947 C   0  0  0  0  0  0  0  0  0  0  0  0
   19.9678   -5.6056   -5.0934 C   0  0  0  0  0  0  0  0  0  0  0  0
   20.8740   -6.4443   -5.1886 O   0  0  0  0  0  0  0  0  0  0  0  0
   19.3261   -5.5963   -3.8845 N   0  0  0  0  0  0  0  0  0  0  0  0
   17.9128   -5.9613   -3.7158 C   0  0  2  0  0  0  0  0  0  0  0  0
   17.4158   -6.9709   -4.7511 C   0  0  0  0  0  0  0  0  0  0  0  0
   17.0236   -4.7197   -3.5636 C   0  0  0  0  0  0  0  0  0  0  0  0
   16.2714   -4.3961   -4.4828 O   0  0  0  0  0  0  0  0  0  0  0  0
   17.1766   -3.9793   -2.3814 N   0  0  0  0  0  0  0  0  0  0  0  0
   16.9551   -4.6769   -1.1176 C   0  0  0  0  0  0  0  0  0  0  0  0
   16.7587   -2.5613   -2.3377 C   0  0  1  0  0  0  0  0  0  0  0  0
   17.6160   -1.5926   -3.1469 C   0  0  0  0  0  0  0  0  0  0  0  0
   17.1508   -0.1338   -2.9931 C   0  0  0  0  0  0  0  0  0  0  0  0
   17.5074    0.4710   -1.6306 C   0  0  0  0  0  0  0  0  0  0  0  0
   17.7721    0.6680   -4.1027 C   0  0  0  0  0  0  0  0  0  0  0  0
   15.2293   -2.4018   -2.3347 C   0  0  0  0  0  0  0  0  0  0  0  0
   14.6879   -2.3814   -1.2182 O   0  0  0  0  0  0  0  0  0  0  0  0
   14.4763   -2.4200   -3.5064 N   0  0  0  0  0  0  0  0  0  0  0  0
   14.9696   -1.9224   -4.8072 C   0  0  0  0  0  0  0  0  0  0  0  0
   13.0002   -2.3246   -3.3246 C   0  0  1  0  0  0  0  0  0  0  0  0
   12.4214   -3.4877   -2.5129 C   0  0  0  0  0  0  0  0  0  0  0  0
   10.8957   -3.6902   -2.6511 C   0  0  0  0  0  0  0  0  0  0  0  0
   10.4904   -4.2468   -4.0218 C   0  0  0  0  0  0  0  0  0  0  0  0
   10.4034   -4.5990   -1.5301 C   0  0  0  0  0  0  0  0  0  0  0  0
   12.8413   -0.8328   -2.9874 C   0  0  0  0  0  0  0  0  0  0  0  0
   13.2695   -0.0586   -3.8653 O   0  0  0  0  0  0  0  0  0  0  0  0
   12.4448   -0.3187   -1.7454 N   0  0  0  0  0  0  0  0  0  0  0  0
   11.2613   -0.8615   -1.0887 C   0  0  0  0  0  0  0  0  0  0  0  0
   12.7432    1.1626   -1.5887 C   0  0  2  0  0  0  0  0  0  0  0  0
   12.3941    1.6948   -0.1366 C   0  0  0  0  0  0  0  0  0  0  0  0
   12.8701    3.0841    0.3083 C   0  0  0  0  0  0  0  0  0  0  0  0
   12.9394    0.7913    0.9934 C   0  0  0  0  0  0  0  0  0  0  0  0
   12.0225    1.7630   -2.8864 C   0  0  0  0  0  0  0  0  0  0  0  0
   11.0429    1.1826   -3.3871 O   0  0  0  0  0  0  0  0  0  0  0  0
   12.5694    2.8705   -3.5541 N   0  0  0  0  0  0  0  0  0  0  0  0
   12.0646    3.0846   -4.9124 C   0  0  0  0  0  0  0  0  0  0  0  0
    5.3962    0.9730    2.4540 H   0  0  0  0  0  0  0  0  0  0  0  0
    5.0716    0.3835    0.8315 H   0  0  0  0  0  0  0  0  0  0  0  0
    4.5708    2.0231    1.3145 H   0  0  0  0  0  0  0  0  0  0  0  0
    7.5122    1.7205    1.7119 H   0  0  0  0  0  0  0  0  0  0  0  0
    6.1438    2.4381   -0.9230 H   0  0  0  0  0  0  0  0  0  0  0  0
    7.8741    3.9752   -1.0964 H   0  0  0  0  0  0  0  0  0  0  0  0
    8.1485    2.1174   -1.4101 H   0  0  0  0  0  0  0  0  0  0  0  0
   10.0546    2.1331   -1.8206 H   0  0  0  0  0  0  0  0  0  0  0  0
    8.3298    4.1579   -3.4359 H   0  0  0  0  0  0  0  0  0  0  0  0
    8.0154    2.4340   -3.3883 H   0  0  0  0  0  0  0  0  0  0  0  0
    9.4258    3.0107   -4.2302 H   0  0  0  0  0  0  0  0  0  0  0  0
   10.6711    4.8247   -2.9424 H   0  0  0  0  0  0  0  0  0  0  0  0
   10.5987    4.7531    0.0110 H   0  0  0  0  0  0  0  0  0  0  0  0
    9.8083    5.7785   -1.1620 H   0  0  0  0  0  0  0  0  0  0  0  0
   11.5367    6.0135   -0.8538 H   0  0  0  0  0  0  0  0  0  0  0  0
   12.8105    4.9388   -3.4413 H   0  0  0  0  0  0  0  0  0  0  0  0
   15.5893    4.8164   -4.0254 H   0  0  0  0  0  0  0  0  0  0  0  0
   17.4885    3.7050   -2.2846 H   0  0  0  0  0  0  0  0  0  0  0  0
   18.0582    4.8943   -0.6527 H   0  0  0  0  0  0  0  0  0  0  0  0
   17.6079    6.4364   -1.3631 H   0  0  0  0  0  0  0  0  0  0  0  0
   20.3717    5.2290   -2.0615 H   0  0  0  0  0  0  0  0  0  0  0  0
   20.0992    5.8788   -0.4837 H   0  0  0  0  0  0  0  0  0  0  0  0
   19.8798    6.9241   -1.8554 H   0  0  0  0  0  0  0  0  0  0  0  0
   20.7440    6.8919   -4.0921 H   0  0  0  0  0  0  0  0  0  0  0  0
   18.9583    6.8942   -3.9143 H   0  0  0  0  0  0  0  0  0  0  0  0
   19.7071    6.8549   -5.5234 H   0  0  0  0  0  0  0  0  0  0  0  0
   21.4806    5.4328   -5.7352 H   0  0  0  0  0  0  0  0  0  0  0  0
   20.2096    4.4458   -6.4112 H   0  0  0  0  0  0  0  0  0  0  0  0
   21.9040    2.6741   -3.1140 H   0  0  0  0  0  0  0  0  0  0  0  0
   23.1759    3.7984   -3.6618 H   0  0  0  0  0  0  0  0  0  0  0  0
   23.5847    2.1019   -3.3373 H   0  0  0  0  0  0  0  0  0  0  0  0
   22.8866    0.4423   -4.7360 H   0  0  0  0  0  0  0  0  0  0  0  0
   22.1433   -0.5762   -6.6013 H   0  0  0  0  0  0  0  0  0  0  0  0
   21.9555    0.9283   -7.5506 H   0  0  0  0  0  0  0  0  0  0  0  0
   20.2170   -0.0347   -5.2793 H   0  0  0  0  0  0  0  0  0  0  0  0
   20.0226    2.2502   -7.3333 H   0  0  0  0  0  0  0  0  0  0  0  0
   20.0046    2.2961   -5.5650 H   0  0  0  0  0  0  0  0  0  0  0  0
   18.6149    1.7078   -6.4215 H   0  0  0  0  0  0  0  0  0  0  0  0
   19.9856   -0.2810   -8.3171 H   0  0  0  0  0  0  0  0  0  0  0  0
   18.5760   -0.4108   -7.2575 H   0  0  0  0  0  0  0  0  0  0  0  0
   19.8923   -1.5701   -7.0974 H   0  0  0  0  0  0  0  0  0  0  0  0
   25.7349   -0.1861   -7.2159 H   0  0  0  0  0  0  0  0  0  0  0  0
   23.2308   -0.0319   -8.5397 H   0  0  0  0  0  0  0  0  0  0  0  0
   25.6536   -1.5172   -9.5225 H   0  0  0  0  0  0  0  0  0  0  0  0
   23.0912   -0.5938  -10.9546 H   0  0  0  0  0  0  0  0  0  0  0  0
   23.4210   -2.2770  -10.5532 H   0  0  0  0  0  0  0  0  0  0  0  0
   24.4604   -1.4411  -11.6958 H   0  0  0  0  0  0  0  0  0  0  0  0
   24.5882    1.2763  -10.1310 H   0  0  0  0  0  0  0  0  0  0  0  0
   25.9009    0.4528  -10.9862 H   0  0  0  0  0  0  0  0  0  0  0  0
   26.1032    0.8937   -9.2869 H   0  0  0  0  0  0  0  0  0  0  0  0
   25.6440   -3.3280   -8.6686 H   0  0  0  0  0  0  0  0  0  0  0  0
   24.2243   -4.0969   -9.4131 H   0  0  0  0  0  0  0  0  0  0  0  0
   25.0879   -4.8844   -8.0638 H   0  0  0  0  0  0  0  0  0  0  0  0
   23.6299   -5.0042   -6.4585 H   0  0  0  0  0  0  0  0  0  0  0  0
   21.9890   -4.1939   -4.8421 H   0  0  0  0  0  0  0  0  0  0  0  0
   22.0049   -2.6029   -5.5999 H   0  0  0  0  0  0  0  0  0  0  0  0
   24.3921   -2.3625   -4.9150 H   0  0  0  0  0  0  0  0  0  0  0  0
   22.4273   -3.1457   -2.6859 H   0  0  0  0  0  0  0  0  0  0  0  0
   22.5076   -1.5703   -3.4815 H   0  0  0  0  0  0  0  0  0  0  0  0
   23.8615   -2.1252   -2.4848 H   0  0  0  0  0  0  0  0  0  0  0  0
   23.9342   -5.1092   -3.6196 H   0  0  0  0  0  0  0  0  0  0  0  0
   25.2764   -4.0275   -3.2146 H   0  0  0  0  0  0  0  0  0  0  0  0
   25.1546   -4.7035   -4.8391 H   0  0  0  0  0  0  0  0  0  0  0  0
   20.0645   -5.4441   -8.0104 H   0  0  0  0  0  0  0  0  0  0  0  0
   20.2101   -3.5650   -5.7371 H   0  0  0  0  0  0  0  0  0  0  0  0
   17.7597   -4.9665   -6.8214 H   0  0  0  0  0  0  0  0  0  0  0  0
   18.4120   -3.4848   -7.5031 H   0  0  0  0  0  0  0  0  0  0  0  0
   17.9065   -3.4878   -5.8338 H   0  0  0  0  0  0  0  0  0  0  0  0
   19.8805   -6.1909   -3.2816 H   0  0  0  0  0  0  0  0  0  0  0  0
   17.8704   -6.5012   -2.7683 H   0  0  0  0  0  0  0  0  0  0  0  0
   17.7549   -6.7584   -5.7654 H   0  0  0  0  0  0  0  0  0  0  0  0
   16.3229   -7.0274   -4.7711 H   0  0  0  0  0  0  0  0  0  0  0  0
   17.8026   -7.9665   -4.5047 H   0  0  0  0  0  0  0  0  0  0  0  0
   17.4533   -5.6409   -1.0800 H   0  0  0  0  0  0  0  0  0  0  0  0
   15.8787   -4.8414   -0.9960 H   0  0  0  0  0  0  0  0  0  0  0  0
   17.3299   -4.0725   -0.2862 H   0  0  0  0  0  0  0  0  0  0  0  0
   17.0258   -2.2526   -1.3135 H   0  0  0  0  0  0  0  0  0  0  0  0
   17.6626   -1.8909   -4.1951 H   0  0  0  0  0  0  0  0  0  0  0  0
   18.6592   -1.6775   -2.8059 H   0  0  0  0  0  0  0  0  0  0  0  0
   16.0713   -0.0487   -3.1144 H   0  0  0  0  0  0  0  0  0  0  0  0
   18.5316    0.3335   -1.3730 H   0  0  0  0  0  0  0  0  0  0  0  0
   16.8767    0.0310   -0.8394 H   0  0  0  0  0  0  0  0  0  0  0  0
   17.2868    1.5450   -1.6328 H   0  0  0  0  0  0  0  0  0  0  0  0
   18.8495    0.7446   -3.9225 H   0  0  0  0  0  0  0  0  0  0  0  0
   17.3274    1.6656   -4.1497 H   0  0  0  0  0  0  0  0  0  0  0  0
   17.6077    0.1970   -5.0768 H   0  0  0  0  0  0  0  0  0  0  0  0
   15.9555   -2.2812   -5.0611 H   0  0  0  0  0  0  0  0  0  0  0  0
   15.0521   -0.8324   -4.8073 H   0  0  0  0  0  0  0  0  0  0  0  0
   14.2857   -2.2163   -5.6077 H   0  0  0  0  0  0  0  0  0  0  0  0
   12.5715   -2.4332   -4.3286 H   0  0  0  0  0  0  0  0  0  0  0  0
   12.6699   -3.3886   -1.4542 H   0  0  0  0  0  0  0  0  0  0  0  0
   12.9197   -4.4147   -2.8336 H   0  0  0  0  0  0  0  0  0  0  0  0
   10.3828   -2.7369   -2.5593 H   0  0  0  0  0  0  0  0  0  0  0  0
   10.9737   -5.2030   -4.2218 H   0  0  0  0  0  0  0  0  0  0  0  0
   10.7485   -3.5584   -4.8246 H   0  0  0  0  0  0  0  0  0  0  0  0
    9.4090   -4.3943   -4.0565 H   0  0  0  0  0  0  0  0  0  0  0  0
   10.8711   -5.5878   -1.5805 H   0  0  0  0  0  0  0  0  0  0  0  0
    9.3173   -4.7257   -1.5786 H   0  0  0  0  0  0  0  0  0  0  0  0
   10.6389   -4.1655   -0.5520 H   0  0  0  0  0  0  0  0  0  0  0  0
   11.4667   -1.8708   -0.7435 H   0  0  0  0  0  0  0  0  0  0  0  0
   10.4106   -0.8388   -1.7718 H   0  0  0  0  0  0  0  0  0  0  0  0
   10.9669   -0.3133   -0.1956 H   0  0  0  0  0  0  0  0  0  0  0  0
   13.8215    1.2553   -1.7571 H   0  0  0  0  0  0  0  0  0  0  0  0
   11.3008    1.7270   -0.0598 H   0  0  0  0  0  0  0  0  0  0  0  0
   13.9345    3.0972    0.5549 H   0  0  0  0  0  0  0  0  0  0  0  0
   12.3589    3.3766    1.2387 H   0  0  0  0  0  0  0  0  0  0  0  0
   12.6916    3.8671   -0.3936 H   0  0  0  0  0  0  0  0  0  0  0  0
   13.9754    1.0444    1.2477 H   0  0  0  0  0  0  0  0  0  0  0  0
   12.9313   -0.2776    0.7722 H   0  0  0  0  0  0  0  0  0  0  0  0
   12.3368    0.9442    1.8969 H   0  0  0  0  0  0  0  0  0  0  0  0
   12.8754    3.4558   -5.5420 H   0  0  0  0  0  0  0  0  0  0  0  0
   11.2612    3.8261   -4.9023 H   0  0  0  0  0  0  0  0  0  0  0  0
   11.6676    2.1667   -5.3590 H   0  0  0  0  0  0  0  0  0  0  0  0
  1  2  1  0  0  0  0
  1 86  1  0  0  0  0
  1 87  1  0  0  0  0
  1 88  1  0  0  0  0
  2  3  2  0  0  0  0
  2 89  1  0  0  0  0
  3  4  1  0  0  0  0
  3 90  1  0  0  0  0
  4  5  1  0  0  0  0
  4 91  1  0  0  0  0
  4 92  1  0  0  0  0
  5  6  1  0  0  0  0
  5  7  1  0  0  0  0
  5 93  1  0  0  0  0
  6 94  1  0  0  0  0
  6 95  1  0  0  0  0
  6 96  1  0  0  0  0
  7  8  1  0  0  0  0
  7  9  1  0  0  0  0
  7 97  1  0  0  0  0
  8 98  1  0  0  0  0
  8 99  1  0  0  0  0
  8100  1  0  0  0  0
  9 10  1  0  0  0  0
  9 84  1  0  0  0  0
  9101  1  6  0  0  0
 10 11  2  0  0  0  0
 10 12  1  0  0  0  0
 12 13  1  0  0  0  0
 12102  1  0  0  0  0
 13 14  1  0  0  0  0
 13 16  1  0  0  0  0
 13103  1  6  0  0  0
 14 15  1  0  0  0  0
 14104  1  0  0  0  0
 14105  1  0  0  0  0
 15106  1  0  0  0  0
 15107  1  0  0  0  0
 15108  1  0  0  0  0
 16 17  2  0  0  0  0
 16 18  1  0  0  0  0
 18 19  1  0  0  0  0
 18 20  1  0  0  0  0
 19109  1  0  0  0  0
 19110  1  0  0  0  0
 19111  1  0  0  0  0
 20 21  1  0  0  0  0
 20112  1  0  0  0  0
 20113  1  0  0  0  0
 21 22  2  0  0  0  0
 21 23  1  0  0  0  0
 23 24  1  0  0  0  0
 23 25  1  0  0  0  0
 24114  1  0  0  0  0
 24115  1  0  0  0  0
 24116  1  0  0  0  0
 25 26  1  0  0  0  0
 25 30  1  0  0  0  0
 25117  1  1  0  0  0
 26 27  1  0  0  0  0
 26118  1  0  0  0  0
 26119  1  0  0  0  0
 27 28  1  0  0  0  0
 27 29  1  0  0  0  0
 27120  1  0  0  0  0
 28121  1  0  0  0  0
 28122  1  0  0  0  0
 28123  1  0  0  0  0
 29124  1  0  0  0  0
 29125  1  0  0  0  0
 29126  1  0  0  0  0
 30 31  2  0  0  0  0
 30 32  1  0  0  0  0
 32 33  1  0  0  0  0
 32127  1  0  0  0  0
 33 34  1  0  0  0  0
 33 37  1  0  0  0  0
 33128  1  6  0  0  0
 34 35  1  0  0  0  0
 34 36  1  0  0  0  0
 34129  1  0  0  0  0
 35130  1  0  0  0  0
 35131  1  0  0  0  0
 35132  1  0  0  0  0
 36133  1  0  0  0  0
 36134  1  0  0  0  0
 36135  1  0  0  0  0
 37 38  2  0  0  0  0
 37 39  1  0  0  0  0
 39 40  1  0  0  0  0
 39 41  1  0  0  0  0
 40136  1  0  0  0  0
 40137  1  0  0  0  0
 40138  1  0  0  0  0
 41 42  1  0  0  0  0
 41 46  1  0  0  0  0
 41139  1  1  0  0  0
 42 43  1  0  0  0  0
 42140  1  0  0  0  0
 42141  1  0  0  0  0
 43 44  1  0  0  0  0
 43 45  1  0  0  0  0
 43142  1  0  0  0  0
 44143  1  0  0  0  0
 44144  1  0  0  0  0
 44145  1  0  0  0  0
 45146  1  0  0  0  0
 45147  1  0  0  0  0
 45148  1  0  0  0  0
 46 47  2  0  0  0  0
 46 48  1  0  0  0  0
 48 49  1  0  0  0  0
 48149  1  0  0  0  0
 49 50  1  0  0  0  0
 49 51  1  0  0  0  0
 49150  1  1  0  0  0
 50151  1  0  0  0  0
 50152  1  0  0  0  0
 50153  1  0  0  0  0
 51 52  2  0  0  0  0
 51 53  1  0  0  0  0
 53 54  1  0  0  0  0
 53154  1  0  0  0  0
 54 56  1  0  0  0  0
 54 55  1  0  0  0  0
 54155  1  1  0  0  0
 55156  1  0  0  0  0
 55157  1  0  0  0  0
 55158  1  0  0  0  0
 56 57  2  0  0  0  0
 56 58  1  0  0  0  0
 58 59  1  0  0  0  0
 58 60  1  0  0  0  0
 59159  1  0  0  0  0
 59160  1  0  0  0  0
 59161  1  0  0  0  0
 60 61  1  0  0  0  0
 60 65  1  0  0  0  0
 60162  1  1  0  0  0
 61 62  1  0  0  0  0
 61163  1  0  0  0  0
 61164  1  0  0  0  0
 62 63  1  0  0  0  0
 62 64  1  0  0  0  0
 62165  1  0  0  0  0
 63166  1  0  0  0  0
 63167  1  0  0  0  0
 63168  1  0  0  0  0
 64169  1  0  0  0  0
 64170  1  0  0  0  0
 64171  1  0  0  0  0
 65 66  2  0  0  0  0
 65 67  1  0  0  0  0
 67 68  1  0  0  0  0
 67 69  1  0  0  0  0
 68172  1  0  0  0  0
 68173  1  0  0  0  0
 68174  1  0  0  0  0
 69 70  1  0  0  0  0
 69 74  1  0  0  0  0
 69175  1  6  0  0  0
 70 71  1  0  0  0  0
 70176  1  0  0  0  0
 70177  1  0  0  0  0
 71 72  1  0  0  0  0
 71 73  1  0  0  0  0
 71178  1  0  0  0  0
 72179  1  0  0  0  0
 72180  1  0  0  0  0
 72181  1  0  0  0  0
 73182  1  0  0  0  0
 73183  1  0  0  0  0
 73184  1  0  0  0  0
 74 75  2  0  0  0  0
 74 76  1  0  0  0  0
 76 77  1  0  0  0  0
 76 78  1  0  0  0  0
 77185  1  0  0  0  0
 77186  1  0  0  0  0
 77187  1  0  0  0  0
 78 82  1  0  0  0  0
 78 79  1  0  0  0  0
 78188  1  6  0  0  0
 79 80  1  0  0  0  0
 79 81  1  0  0  0  0
 79189  1  0  0  0  0
 80190  1  0  0  0  0
 80191  1  0  0  0  0
 80192  1  0  0  0  0
 81193  1  0  0  0  0
 81194  1  0  0  0  0
 81195  1  0  0  0  0
 82 83  2  0  0  0  0
 82 84  1  0  0  0  0
 84 85  1  0  0  0  0
 85196  1  0  0  0  0
 85197  1  0  0  0  0
 85198  1  0  0  0  0
M  END
>  <Energy>
808.997

$$$$