57
 OpenBabel03292021493D

167170  0  0  1  0  0  0  0  0999 V2000
    4.7270    0.6764   -1.3348 C   0  0  0  0  0  0  0  0  0  0  0  0
    3.5290    0.9931   -0.4366 C   0  0  0  0  0  0  0  0  0  0  0  0
    2.1221    0.4305   -0.8857 C   0  0  2  0  0  0  0  0  0  0  0  0
    1.8768   -0.8637   -0.1176 C   0  0  0  0  0  0  0  0  0  0  0  0
    0.8083    1.4152   -0.9950 C   0  0  2  0  0  0  0  0  0  0  0  0
   -0.6708    0.9051   -0.6039 N   0  0  0  0  0  0  0  0  0  0  0  0
   -1.8155    1.6239   -1.0270 C   0  0  0  0  0  0  0  0  0  0  0  0
   -1.7687    2.8409   -0.7819 O   0  0  0  0  0  0  0  0  0  0  0  0
   -3.2969    1.0740   -1.7486 C   0  0  2  0  0  0  0  0  0  0  0  0
   -4.5336    1.6078   -1.0201 C   0  0  0  0  0  0  0  0  0  0  0  0
   -5.1891    0.3889   -0.3845 C   0  0  0  0  0  0  0  0  0  0  0  0
   -4.7882   -0.7750   -1.2819 C   0  0  0  0  0  0  0  0  0  0  0  0
   -3.9289   -0.1904   -2.3093 N   0  0  0  0  0  0  0  0  0  0  0  0
   -4.4654   -0.4311   -3.6263 C   0  0  0  0  0  0  0  0  0  0  0  0
   -4.9315   -1.5481   -3.8951 O   0  0  0  0  0  0  0  0  0  0  0  0
   -4.5302    0.6900   -4.7277 C   0  0  2  0  0  0  0  0  0  0  0  0
   -5.3868    0.4271   -5.9949 C   0  0  0  0  0  0  0  0  0  0  0  0
   -6.8884    0.4857   -5.9636 C   0  0  0  0  0  0  0  0  0  0  0  0
   -7.5732    1.6849   -6.2150 C   0  0  0  0  0  0  0  0  0  0  0  0
   -8.9581    1.6793   -6.3982 C   0  0  0  0  0  0  0  0  0  0  0  0
   -9.6668    0.4808   -6.3287 C   0  0  0  0  0  0  0  0  0  0  0  0
   -8.9948   -0.7109   -6.0654 C   0  0  0  0  0  0  0  0  0  0  0  0
   -7.6138   -0.7076   -5.8788 C   0  0  0  0  0  0  0  0  0  0  0  0
   -3.1606    0.9737   -5.2175 N   0  0  0  0  0  0  0  0  0  0  0  0
   -2.5807    0.0629   -6.2130 C   0  0  0  0  0  0  0  0  0  0  0  0
   -2.6629    2.2236   -4.9418 C   0  0  0  0  0  0  0  0  0  0  0  0
   -3.3560    3.0149   -4.3066 O   0  0  0  0  0  0  0  0  0  0  0  0
   -1.2315    2.5677   -5.3054 C   0  0  2  0  0  0  0  0  0  0  0  0
   -0.2129    1.9427   -4.3115 C   0  0  0  0  0  0  0  0  0  0  0  0
   -0.0297    0.4238   -4.1854 C   0  0  0  0  0  0  0  0  0  0  0  0
    1.1438   -0.2653   -4.4886 C   0  0  0  0  0  0  0  0  0  0  0  0
    1.2773   -1.6474   -4.2084 C   0  0  0  0  0  0  0  0  0  0  0  0
    0.2384   -2.3791   -3.6213 C   0  0  0  0  0  0  0  0  0  0  0  0
   -0.9305   -1.7224   -3.3028 C   0  0  0  0  0  0  0  0  0  0  0  0
   -1.0134   -0.3595   -3.5821 C   0  0  0  0  0  0  0  0  0  0  0  0
   -1.0976    4.0429   -5.5375 N   0  0  0  0  0  0  0  0  0  0  0  0
   -1.3912    5.2254   -4.9199 C   0  0  0  0  0  0  0  0  0  0  0  0
   -0.6992    6.1522   -5.3865 O   0  0  0  0  0  0  0  0  0  0  0  0
   -2.5227    5.5624   -3.8628 C   0  0  2  0  0  0  0  0  0  0  0  0
   -3.9438    5.9625   -4.4427 C   0  0  0  0  0  0  0  0  0  0  0  0
   -4.9671    6.1492   -3.3004 C   0  0  0  0  0  0  0  0  0  0  0  0
   -4.5908    5.0844   -5.5160 C   0  0  0  0  0  0  0  0  0  0  0  0
   -2.0629    6.7321   -2.9995 N   0  0  0  0  0  0  0  0  0  0  0  0
   -2.0271    8.0456   -3.6349 C   0  0  0  0  0  0  0  0  0  0  0  0
   -1.4755    6.4560   -1.7824 C   0  0  0  0  0  0  0  0  0  0  0  0
   -1.0409    5.2945   -1.5636 O   0  0  0  0  0  0  0  0  0  0  0  0
   -1.4627    7.4027   -0.5483 C   0  0  1  0  0  0  0  0  0  0  0  0
   -1.2748    8.9192   -0.7278 C   0  0  1  0  0  0  0  0  0  0  0  0
   -2.5885    9.6731   -0.9392 C   0  0  0  0  0  0  0  0  0  0  0  0
   -0.4854    9.5557    0.4406 C   0  0  0  0  0  0  0  0  0  0  0  0
    0.0208   10.9537    0.0989 C   0  0  0  0  0  0  0  0  0  0  0  0
   -2.5851    7.0175    0.2980 O   0  0  0  0  0  0  0  0  0  0  0  0
   -2.3361    6.6474    1.5950 C   0  0  0  0  0  0  0  0  0  0  0  0
   -2.1030    7.4819    2.4650 O   0  0  0  0  0  0  0  0  0  0  0  0
   -2.3743    5.0996    1.8500 C   0  0  2  0  0  0  0  0  0  0  0  0
   -3.8128    4.4864    1.7295 C   0  0  0  0  0  0  0  0  0  0  0  0
   -4.4325    4.7879    0.3534 C   0  0  0  0  0  0  0  0  0  0  0  0
   -3.8180    2.9729    2.0127 C   0  0  0  0  0  0  0  0  0  0  0  0
   -4.7074    5.0502    2.7032 O   0  0  0  0  0  0  0  0  0  0  0  0
   -1.6068    4.6921    3.1176 N   0  0  0  0  0  0  0  0  0  0  0  0
   -2.1554    5.0770    4.4054 C   0  0  0  0  0  0  0  0  0  0  0  0
   -0.8028    3.5622    3.0659 C   0  0  0  0  0  0  0  0  0  0  0  0
   -1.0150    2.7015    2.1957 O   0  0  0  0  0  0  0  0  0  0  0  0
    0.3930    3.3083    4.0693 C   0  0  2  0  0  0  0  0  0  0  0  0
    1.2624    4.4153    4.7038 C   0  0  0  0  0  0  0  0  0  0  0  0
    2.3032    4.0802    5.8111 C   0  0  0  0  0  0  0  0  0  0  0  0
    1.6664    3.9264    7.1850 C   0  0  0  0  0  0  0  0  0  0  0  0
    3.2458    2.9101    5.5277 C   0  0  0  0  0  0  0  0  0  0  0  0
    1.2794    2.4558    3.2613 N   0  0  0  0  0  0  0  0  0  0  0  0
    2.0133    2.8429    2.1744 C   0  0  0  0  0  0  0  0  0  0  0  0
    3.0986    2.2663    2.0650 O   0  0  0  0  0  0  0  0  0  0  0  0
    1.5152    3.8838    1.1215 C   0  0  3  0  0  0  0  0  0  0  0  0
    2.0819    5.3214    1.3610 C   0  0  0  0  0  0  0  0  0  0  0  0
    2.5583    6.0196    0.0753 C   0  0  0  0  0  0  0  0  0  0  0  0
    1.0450    6.2542    1.9829 C   0  0  0  0  0  0  0  0  0  0  0  0
    2.0413    3.4093   -0.1286 O   0  0  0  0  0  0  0  0  0  0  0  0
    1.2389    2.9231   -1.0989 C   0  0  0  0  0  0  0  0  0  0  0  0
    1.1662    3.5368   -2.1643 O   0  0  0  0  0  0  0  0  0  0  0  0
    5.6148    1.1992   -0.9455 H   0  0  0  0  0  0  0  0  0  0  0  0
    4.5703    1.0387   -2.3547 H   0  0  0  0  0  0  0  0  0  0  0  0
    4.9612   -0.3893   -1.3513 H   0  0  0  0  0  0  0  0  0  0  0  0
    3.5719    2.0706   -0.3677 H   0  0  0  0  0  0  0  0  0  0  0  0
    3.7832    0.6041    0.5565 H   0  0  0  0  0  0  0  0  0  0  0  0
    2.3046    0.1184   -1.9228 H   0  0  0  0  0  0  0  0  0  0  0  0
    1.7230   -0.6729    0.9480 H   0  0  0  0  0  0  0  0  0  0  0  0
    2.7527   -1.5214   -0.2118 H   0  0  0  0  0  0  0  0  0  0  0  0
    1.0216   -1.4096   -0.5193 H   0  0  0  0  0  0  0  0  0  0  0  0
    0.6549    1.2627   -2.0536 H   0  0  0  0  0  0  0  0  0  0  0  0
   -0.6816    0.9882    0.4097 H   0  0  0  0  0  0  0  0  0  0  0  0
   -3.2257    1.7059   -2.6178 H   0  0  0  0  0  0  0  0  0  0  0  0
   -5.2358    2.0455   -1.7444 H   0  0  0  0  0  0  0  0  0  0  0  0
   -4.3195    2.3756   -0.3042 H   0  0  0  0  0  0  0  0  0  0  0  0
   -6.2809    0.5134   -0.3435 H   0  0  0  0  0  0  0  0  0  0  0  0
   -4.8420    0.2252    0.6383 H   0  0  0  0  0  0  0  0  0  0  0  0
   -5.6871   -1.2462   -1.6935 H   0  0  0  0  0  0  0  0  0  0  0  0
   -4.2214   -1.5293   -0.7276 H   0  0  0  0  0  0  0  0  0  0  0  0
   -4.9758    1.5542   -4.2212 H   0  0  0  0  0  0  0  0  0  0  0  0
   -5.0934    1.1765   -6.7496 H   0  0  0  0  0  0  0  0  0  0  0  0
   -5.1050   -0.5314   -6.4499 H   0  0  0  0  0  0  0  0  0  0  0  0
   -7.0311    2.6218   -6.3301 H   0  0  0  0  0  0  0  0  0  0  0  0
   -9.4821    2.6044   -6.6263 H   0  0  0  0  0  0  0  0  0  0  0  0
  -10.7405    0.4713   -6.4953 H   0  0  0  0  0  0  0  0  0  0  0  0
   -9.5391   -1.6505   -6.0332 H   0  0  0  0  0  0  0  0  0  0  0  0
   -7.0937   -1.6513   -5.7218 H   0  0  0  0  0  0  0  0  0  0  0  0
   -2.9206   -0.9597   -6.0298 H   0  0  0  0  0  0  0  0  0  0  0  0
   -1.4941    0.0707   -6.2079 H   0  0  0  0  0  0  0  0  0  0  0  0
   -2.8886    0.3973   -7.2077 H   0  0  0  0  0  0  0  0  0  0  0  0
   -1.0229    2.1524   -6.2989 H   0  0  0  0  0  0  0  0  0  0  0  0
    0.7769    2.3856   -4.5121 H   0  0  0  0  0  0  0  0  0  0  0  0
   -0.5194    2.3290   -3.3320 H   0  0  0  0  0  0  0  0  0  0  0  0
    2.0030    0.2600   -4.8983 H   0  0  0  0  0  0  0  0  0  0  0  0
    2.2097   -2.1612   -4.4221 H   0  0  0  0  0  0  0  0  0  0  0  0
    0.3435   -3.4392   -3.3990 H   0  0  0  0  0  0  0  0  0  0  0  0
   -1.7616   -2.2404   -2.8325 H   0  0  0  0  0  0  0  0  0  0  0  0
   -1.9191    0.1333   -3.2965 H   0  0  0  0  0  0  0  0  0  0  0  0
   -0.3129    4.2417   -6.1443 H   0  0  0  0  0  0  0  0  0  0  0  0
   -2.6222    4.7127   -3.1819 H   0  0  0  0  0  0  0  0  0  0  0  0
   -3.8493    6.9383   -4.9335 H   0  0  0  0  0  0  0  0  0  0  0  0
   -5.1377    5.2104   -2.7623 H   0  0  0  0  0  0  0  0  0  0  0  0
   -5.9335    6.4889   -3.6931 H   0  0  0  0  0  0  0  0  0  0  0  0
   -4.6427    6.8999   -2.5724 H   0  0  0  0  0  0  0  0  0  0  0  0
   -5.1121    4.2245   -5.0929 H   0  0  0  0  0  0  0  0  0  0  0  0
   -3.8714    4.7579   -6.2694 H   0  0  0  0  0  0  0  0  0  0  0  0
   -5.3656    5.6610   -6.0391 H   0  0  0  0  0  0  0  0  0  0  0  0
   -2.0188    7.9654   -4.7240 H   0  0  0  0  0  0  0  0  0  0  0  0
   -1.1226    8.5885   -3.3719 H   0  0  0  0  0  0  0  0  0  0  0  0
   -2.9244    8.6002   -3.3646 H   0  0  0  0  0  0  0  0  0  0  0  0
   -0.5437    7.0834   -0.0614 H   0  0  0  0  0  0  0  0  0  0  0  0
   -0.6230    9.0604   -1.5919 H   0  0  0  0  0  0  0  0  0  0  0  0
   -2.9695   10.1023   -0.0086 H   0  0  0  0  0  0  0  0  0  0  0  0
   -3.3750    9.0330   -1.3446 H   0  0  0  0  0  0  0  0  0  0  0  0
   -2.4298   10.4978   -1.6442 H   0  0  0  0  0  0  0  0  0  0  0  0
    0.3905    8.9407    0.6771 H   0  0  0  0  0  0  0  0  0  0  0  0
   -1.1001    9.6027    1.3446 H   0  0  0  0  0  0  0  0  0  0  0  0
    0.6555   10.9306   -0.7931 H   0  0  0  0  0  0  0  0  0  0  0  0
    0.6182   11.3526    0.9247 H   0  0  0  0  0  0  0  0  0  0  0  0
   -0.8051   11.6469   -0.0860 H   0  0  0  0  0  0  0  0  0  0  0  0
   -1.7732    4.6921    1.0284 H   0  0  0  0  0  0  0  0  0  0  0  0
   -5.3817    4.2561    0.2210 H   0  0  0  0  0  0  0  0  0  0  0  0
   -3.7641    4.5192   -0.4691 H   0  0  0  0  0  0  0  0  0  0  0  0
   -4.6952    5.8455    0.2531 H   0  0  0  0  0  0  0  0  0  0  0  0
   -4.8230    2.5499    1.8920 H   0  0  0  0  0  0  0  0  0  0  0  0
   -3.5337    2.7495    3.0418 H   0  0  0  0  0  0  0  0  0  0  0  0
   -3.1456    2.4259    1.3491 H   0  0  0  0  0  0  0  0  0  0  0  0
   -5.5678    4.6057    2.5929 H   0  0  0  0  0  0  0  0  0  0  0  0
   -3.0621    5.6718    4.2992 H   0  0  0  0  0  0  0  0  0  0  0  0
   -1.4223    5.6658    4.9555 H   0  0  0  0  0  0  0  0  0  0  0  0
   -2.3864    4.1714    4.9779 H   0  0  0  0  0  0  0  0  0  0  0  0
   -0.0188    2.6780    4.8657 H   0  0  0  0  0  0  0  0  0  0  0  0
    1.9032    4.8370    3.9313 H   0  0  0  0  0  0  0  0  0  0  0  0
    0.6364    5.2316    5.0689 H   0  0  0  0  0  0  0  0  0  0  0  0
    2.9496    4.9692    5.8748 H   0  0  0  0  0  0  0  0  0  0  0  0
    1.1420    2.9727    7.2809 H   0  0  0  0  0  0  0  0  0  0  0  0
    0.9623    4.7401    7.3822 H   0  0  0  0  0  0  0  0  0  0  0  0
    2.4413    3.9702    7.9600 H   0  0  0  0  0  0  0  0  0  0  0  0
    2.7247    1.9491    5.5554 H   0  0  0  0  0  0  0  0  0  0  0  0
    4.0376    2.8621    6.2845 H   0  0  0  0  0  0  0  0  0  0  0  0
    3.7436    3.0238    4.5597 H   0  0  0  0  0  0  0  0  0  0  0  0
    1.7412    1.7025    3.7531 H   0  0  0  0  0  0  0  0  0  0  0  0
    0.4392    3.9080    1.0076 H   0  0  0  0  0  0  0  0  0  0  0  0
    2.9451    5.2680    2.0346 H   0  0  0  0  0  0  0  0  0  0  0  0
    1.7788    6.0097   -0.6944 H   0  0  0  0  0  0  0  0  0  0  0  0
    3.4579    5.5445   -0.3247 H   0  0  0  0  0  0  0  0  0  0  0  0
    2.8075    7.0699    0.2701 H   0  0  0  0  0  0  0  0  0  0  0  0
    0.1402    6.1906    1.4012 H   0  0  0  0  0  0  0  0  0  0  0  0
    1.3842    7.2929    2.0102 H   0  0  0  0  0  0  0  0  0  0  0  0
    0.7396    6.0198    2.9915 H   0  0  0  0  0  0  0  0  0  0  0  0
  1  2  1  0  0  0  0
  1 79  1  0  0  0  0
  1 80  1  0  0  0  0
  1 81  1  0  0  0  0
  2 82  1  0  0  0  0
  2 83  1  0  0  0  0
  3  4  1  0  0  0  0
  3  2  1  0  0  0  0
  3 84  1  1  0  0  0
  4 85  1  0  0  0  0
  4 86  1  0  0  0  0
  4 87  1  0  0  0  0
  5  6  1  0  0  0  0
  5 77  1  0  0  0  0
  5  3  1  0  0  0  0
  5 88  1  1  0  0  0
  6  7  1  0  0  0  0
  6 89  1  0  0  0  0
  7  8  2  0  0  0  0
  7  9  1  0  0  0  0
  9 10  1  0  0  0  0
  9 13  1  0  0  0  0
  9 90  1  6  0  0  0
 10 11  1  0  0  0  0
 10 91  1  0  0  0  0
 10 92  1  0  0  0  0
 11 12  1  0  0  0  0
 11 93  1  0  0  0  0
 11 94  1  0  0  0  0
 12 13  1  0  0  0  0
 12 95  1  0  0  0  0
 12 96  1  0  0  0  0
 13 14  1  0  0  0  0
 14 15  2  0  0  0  0
 14 16  1  0  0  0  0
 16 24  1  0  0  0  0
 16 17  1  0  0  0  0
 16 97  1  1  0  0  0
 17 18  1  0  0  0  0
 17 98  1  0  0  0  0
 17 99  1  0  0  0  0
 18 19  1  0  0  0  0
 18 23  2  0  0  0  0
 19 20  2  0  0  0  0
 19100  1  0  0  0  0
 20 21  1  0  0  0  0
 20101  1  0  0  0  0
 21 22  2  0  0  0  0
 21102  1  0  0  0  0
 22 23  1  0  0  0  0
 22103  1  0  0  0  0
 23104  1  0  0  0  0
 24 25  1  0  0  0  0
 24 26  1  0  0  0  0
 25105  1  0  0  0  0
 25106  1  0  0  0  0
 25107  1  0  0  0  0
 26 27  2  0  0  0  0
 26 28  1  0  0  0  0
 28 36  1  0  0  0  0
 28 29  1  0  0  0  0
 28108  1  6  0  0  0
 29 30  1  0  0  0  0
 29109  1  0  0  0  0
 29110  1  0  0  0  0
 30 31  1  0  0  0  0
 30 35  2  0  0  0  0
 31 32  2  0  0  0  0
 31111  1  0  0  0  0
 32 33  1  0  0  0  0
 32112  1  0  0  0  0
 33 34  2  0  0  0  0
 33113  1  0  0  0  0
 34 35  1  0  0  0  0
 34114  1  0  0  0  0
 35115  1  0  0  0  0
 36 37  1  0  0  0  0
 36116  1  0  0  0  0
 37 38  2  0  0  0  0
 37 39  1  0  0  0  0
 39 43  1  0  0  0  0
 39 40  1  0  0  0  0
 39117  1  1  0  0  0
 40 41  1  0  0  0  0
 40 42  1  0  0  0  0
 40118  1  0  0  0  0
 41119  1  0  0  0  0
 41120  1  0  0  0  0
 41121  1  0  0  0  0
 42122  1  0  0  0  0
 42123  1  0  0  0  0
 42124  1  0  0  0  0
 43 44  1  0  0  0  0
 43 45  1  0  0  0  0
 44125  1  0  0  0  0
 44126  1  0  0  0  0
 44127  1  0  0  0  0
 45 46  2  0  0  0  0
 45 47  1  0  0  0  0
 47 48  1  0  0  0  0
 47 52  1  0  0  0  0
 47128  1  1  0  0  0
 48 49  1  0  0  0  0
 48 50  1  0  0  0  0
 48129  1  6  0  0  0
 49130  1  0  0  0  0
 49131  1  0  0  0  0
 49132  1  0  0  0  0
 50 51  1  0  0  0  0
 50133  1  0  0  0  0
 50134  1  0  0  0  0
 51135  1  0  0  0  0
 51136  1  0  0  0  0
 51137  1  0  0  0  0
 52 53  1  0  0  0  0
 53 54  2  0  0  0  0
 53 55  1  0  0  0  0
 55 60  1  0  0  0  0
 55 56  1  0  0  0  0
 55138  1  6  0  0  0
 56 57  1  0  0  0  0
 56 58  1  0  0  0  0
 56 59  1  0  0  0  0
 57139  1  0  0  0  0
 57140  1  0  0  0  0
 57141  1  0  0  0  0
 58142  1  0  0  0  0
 58143  1  0  0  0  0
 58144  1  0  0  0  0
 59145  1  0  0  0  0
 60 61  1  0  0  0  0
 60 62  1  0  0  0  0
 61146  1  0  0  0  0
 61147  1  0  0  0  0
 61148  1  0  0  0  0
 62 63  2  0  0  0  0
 62 64  1  0  0  0  0
 64 69  1  0  0  0  0
 64 65  1  0  0  0  0
 64149  1  1  0  0  0
 65 66  1  0  0  0  0
 65150  1  0  0  0  0
 65151  1  0  0  0  0
 66 67  1  0  0  0  0
 66 68  1  0  0  0  0
 66152  1  0  0  0  0
 67153  1  0  0  0  0
 67154  1  0  0  0  0
 67155  1  0  0  0  0
 68156  1  0  0  0  0
 68157  1  0  0  0  0
 68158  1  0  0  0  0
 69 70  1  0  0  0  0
 69159  1  0  0  0  0
 70 71  2  0  0  0  0
 70 72  1  0  0  0  0
 72 73  1  0  0  0  0
 72 76  1  0  0  0  0
 72160  1  0  0  0  0
 73 74  1  0  0  0  0
 73 75  1  0  0  0  0
 73161  1  0  0  0  0
 74162  1  0  0  0  0
 74163  1  0  0  0  0
 74164  1  0  0  0  0
 75165  1  0  0  0  0
 75166  1  0  0  0  0
 75167  1  0  0  0  0
 76 77  1  0  0  0  0
 77 78  2  0  0  0  0
M  END
>  <Energy>
540.539

$$$$