59
 OpenBabel03292021493D

 89 94  0  0  1  0  0  0  0  0999 V2000
    1.9886  -14.2316    6.7970 C   0  0  0  0  0  0  0  0  0  0  0  0
    2.5226  -14.0764    5.4130 C   0  0  0  0  0  0  0  0  0  0  0  0
    3.1625  -15.0184    4.7554 N   0  0  0  0  0  0  0  0  0  0  0  0
    3.4902  -14.5910    3.4648 C   0  0  0  0  0  0  0  0  0  0  0  0
    4.1611  -15.5991    2.5767 C   0  0  0  0  0  0  0  0  0  0  0  0
    4.5370  -15.2230    1.2498 O   0  0  0  0  0  0  0  0  0  0  0  0
    5.6472  -14.4900    0.9650 C   0  0  0  0  0  0  0  0  0  0  0  0
    6.0210  -14.5538   -0.3799 C   0  0  0  0  0  0  0  0  0  0  0  0
    6.8115  -13.5574   -0.9553 C   0  0  0  0  0  0  0  0  0  0  0  0
    7.2460  -12.4862   -0.1747 C   0  0  0  0  0  0  0  0  0  0  0  0
    7.6457  -11.1639   -0.8359 C   0  0  0  0  0  0  0  0  0  0  0  0
    6.5026  -10.0322   -0.9348 C   0  0  2  0  0  0  0  0  0  0  0  0
    5.2854  -10.6452   -1.5568 N   0  0  0  0  0  0  0  0  0  0  0  0
    4.6660  -10.3362   -2.7428 C   0  0  0  0  0  0  0  0  0  0  0  0
    4.8174   -9.3044   -3.3704 O   0  0  0  0  0  0  0  0  0  0  0  0
    3.8500  -11.3738   -3.1440 O   0  0  0  0  0  0  0  0  0  0  0  0
    2.9160  -11.2342   -4.2475 C   0  0  1  0  0  0  0  0  0  0  0  0
    3.4284  -10.7325   -5.5936 C   0  0  0  0  0  0  0  0  0  0  0  0
    2.4346  -11.1332   -6.5523 O   0  0  0  0  0  0  0  0  0  0  0  0
    1.8417  -12.3475   -6.1019 C   0  0  1  0  0  0  0  0  0  0  0  0
    2.2742  -13.4425   -6.9152 O   0  0  0  0  0  0  0  0  0  0  0  0
    2.8425  -14.4370   -6.0750 C   0  0  0  0  0  0  0  0  0  0  0  0
    3.2306  -13.7652   -4.7768 C   0  0  0  0  0  0  0  0  0  0  0  0
    2.2920  -12.5701   -4.6734 C   0  0  1  0  0  0  0  0  0  0  0  0
    6.4257   -9.2028    0.4601 C   0  0  2  0  0  0  0  0  0  0  0  0
    6.4070  -10.0232    1.6274 O   0  0  0  0  0  0  0  0  0  0  0  0
    5.5403   -7.9263    0.7630 C   0  0  0  0  0  0  0  0  0  0  0  0
    4.3542   -8.1255    1.6838 N   0  0  0  0  0  0  0  0  0  0  0  0
    3.7969   -6.9495    2.4573 C   0  0  0  0  0  0  0  0  0  0  0  0
    4.6914   -6.1358    3.4291 C   0  0  0  0  0  0  0  0  0  0  0  0
    3.8586   -4.9411    3.9649 C   0  0  0  0  0  0  0  0  0  0  0  0
    5.2236   -6.8841    4.6583 C   0  0  0  0  0  0  0  0  0  0  0  0
    3.1610   -9.2640    1.2438 S   0  0  0  0  0  0  0  0  0  0  0  0
    3.8020  -10.3775    0.5812 O   0  0  0  0  0  0  0  0  0  0  0  0
    2.3943   -9.5280    2.4410 O   0  0  0  0  0  0  0  0  0  0  0  0
    2.0162   -8.5274    0.0644 C   0  0  0  0  0  0  0  0  0  0  0  0
    2.3964   -8.0350   -1.2042 C   0  0  0  0  0  0  0  0  0  0  0  0
    1.4198   -7.8376   -2.2106 C   0  0  0  0  0  0  0  0  0  0  0  0
    0.1148   -8.1807   -1.9234 C   0  0  0  0  0  0  0  0  0  0  0  0
   -0.2537   -8.5994   -0.6697 C   0  0  0  0  0  0  0  0  0  0  0  0
    0.6587   -8.7384    0.3510 C   0  0  0  0  0  0  0  0  0  0  0  0
   -1.5629   -8.9609   -0.5998 O   0  0  0  0  0  0  0  0  0  0  0  0
   -1.8915   -8.9736   -2.0019 C   0  0  0  0  0  0  0  0  0  0  0  0
   -0.9282   -8.2519   -2.8028 O   0  0  0  0  0  0  0  0  0  0  0  0
    7.1580  -12.6340    1.2174 C   0  0  0  0  0  0  0  0  0  0  0  0
    6.3157  -13.6034    1.7939 C   0  0  0  0  0  0  0  0  0  0  0  0
    3.0817  -13.2999    3.1846 C   0  0  0  0  0  0  0  0  0  0  0  0
    2.3014  -12.6092    4.5523 S   0  0  0  0  0  0  0  0  0  0  0  0
    2.3639  -15.1550    7.2510 H   0  0  0  0  0  0  0  0  0  0  0  0
    0.8952  -14.2877    6.7846 H   0  0  0  0  0  0  0  0  0  0  0  0
    2.2893  -13.3981    7.4393 H   0  0  0  0  0  0  0  0  0  0  0  0
    3.3899  -16.3706    2.4111 H   0  0  0  0  0  0  0  0  0  0  0  0
    4.9862  -16.1024    3.0854 H   0  0  0  0  0  0  0  0  0  0  0  0
    5.6130  -15.3421   -1.0079 H   0  0  0  0  0  0  0  0  0  0  0  0
    6.9970  -13.5852   -2.0257 H   0  0  0  0  0  0  0  0  0  0  0  0
    7.9667  -11.3946   -1.8623 H   0  0  0  0  0  0  0  0  0  0  0  0
    8.5359  -10.7617   -0.3379 H   0  0  0  0  0  0  0  0  0  0  0  0
    6.8579   -9.3010   -1.6706 H   0  0  0  0  0  0  0  0  0  0  0  0
    4.9581  -11.5002   -1.1254 H   0  0  0  0  0  0  0  0  0  0  0  0
    2.0971  -10.5836   -3.9095 H   0  0  0  0  0  0  0  0  0  0  0  0
    4.3849  -11.1797   -5.8781 H   0  0  0  0  0  0  0  0  0  0  0  0
    3.5239   -9.6451   -5.6343 H   0  0  0  0  0  0  0  0  0  0  0  0
    0.7509  -12.2622   -6.2006 H   0  0  0  0  0  0  0  0  0  0  0  0
    3.7019  -14.8890   -6.5839 H   0  0  0  0  0  0  0  0  0  0  0  0
    2.0921  -15.2250   -5.9242 H   0  0  0  0  0  0  0  0  0  0  0  0
    4.2776  -13.4423   -4.8243 H   0  0  0  0  0  0  0  0  0  0  0  0
    3.1341  -14.4528   -3.9339 H   0  0  0  0  0  0  0  0  0  0  0  0
    1.4412  -12.8441   -4.0307 H   0  0  0  0  0  0  0  0  0  0  0  0
    7.4412   -8.7774    0.4705 H   0  0  0  0  0  0  0  0  0  0  0  0
    5.5621  -10.4849    1.6185 H   0  0  0  0  0  0  0  0  0  0  0  0
    5.2990   -7.3454   -0.1260 H   0  0  0  0  0  0  0  0  0  0  0  0
    6.2140   -7.2937    1.3642 H   0  0  0  0  0  0  0  0  0  0  0  0
    2.9685   -7.3170    3.0761 H   0  0  0  0  0  0  0  0  0  0  0  0
    3.3619   -6.2602    1.7246 H   0  0  0  0  0  0  0  0  0  0  0  0
    5.5512   -5.7285    2.8896 H   0  0  0  0  0  0  0  0  0  0  0  0
    2.8266   -5.2399    4.1949 H   0  0  0  0  0  0  0  0  0  0  0  0
    3.8150   -4.1369    3.2254 H   0  0  0  0  0  0  0  0  0  0  0  0
    4.2781   -4.5189    4.8860 H   0  0  0  0  0  0  0  0  0  0  0  0
    4.4196   -7.1775    5.3438 H   0  0  0  0  0  0  0  0  0  0  0  0
    5.8888   -6.2205    5.2304 H   0  0  0  0  0  0  0  0  0  0  0  0
    5.8046   -7.7684    4.3889 H   0  0  0  0  0  0  0  0  0  0  0  0
    3.4391   -7.8604   -1.4641 H   0  0  0  0  0  0  0  0  0  0  0  0
    1.6913   -7.5010   -3.2070 H   0  0  0  0  0  0  0  0  0  0  0  0
    0.3269   -9.1339    1.3060 H   0  0  0  0  0  0  0  0  0  0  0  0
   -2.8895   -8.5462   -2.1402 H   0  0  0  0  0  0  0  0  0  0  0  0
   -1.9152  -10.0213   -2.3368 H   0  0  0  0  0  0  0  0  0  0  0  0
    7.6483  -11.9161    1.8734 H   0  0  0  0  0  0  0  0  0  0  0  0
    6.1379  -13.5613    2.8640 H   0  0  0  0  0  0  0  0  0  0  0  0
    3.1877  -12.7359    2.2696 H   0  0  0  0  0  0  0  0  0  0  0  0
  1  2  1  0  0  0  0
  1 49  1  0  0  0  0
  1 50  1  0  0  0  0
  1 51  1  0  0  0  0
  2  3  2  0  0  0  0
  2 48  1  0  0  0  0
  3  4  1  0  0  0  0
  4  5  1  0  0  0  0
  4 47  2  0  0  0  0
  5  6  1  0  0  0  0
  5 52  1  0  0  0  0
  5 53  1  0  0  0  0
  6  7  1  0  0  0  0
  7  8  1  0  0  0  0
  7 46  2  0  0  0  0
  8  9  2  0  0  0  0
  8 54  1  0  0  0  0
  9 10  1  0  0  0  0
  9 55  1  0  0  0  0
 10 11  1  0  0  0  0
 10 45  2  0  0  0  0
 11 56  1  0  0  0  0
 11 57  1  0  0  0  0
 12 13  1  0  0  0  0
 12 11  1  0  0  0  0
 12 58  1  1  0  0  0
 13 14  1  0  0  0  0
 13 59  1  0  0  0  0
 14 15  2  0  0  0  0
 14 16  1  0  0  0  0
 16 17  1  0  0  0  0
 17 18  1  0  0  0  0
 17 24  1  0  0  0  0
 17 60  1  1  0  0  0
 18 19  1  0  0  0  0
 18 61  1  0  0  0  0
 18 62  1  0  0  0  0
 19 20  1  0  0  0  0
 20 21  1  0  0  0  0
 20 24  1  0  0  0  0
 20 63  1  6  0  0  0
 21 22  1  0  0  0  0
 22 23  1  0  0  0  0
 22 64  1  0  0  0  0
 22 65  1  0  0  0  0
 23 24  1  0  0  0  0
 23 66  1  0  0  0  0
 23 67  1  0  0  0  0
 24 68  1  1  0  0  0
 25 27  1  0  0  0  0
 25 26  1  0  0  0  0
 25 12  1  0  0  0  0
 25 69  1  1  0  0  0
 26 70  1  0  0  0  0
 27 28  1  0  0  0  0
 27 71  1  0  0  0  0
 27 72  1  0  0  0  0
 28 29  1  0  0  0  0
 28 33  1  0  0  0  0
 29 30  1  0  0  0  0
 29 73  1  0  0  0  0
 29 74  1  0  0  0  0
 30 31  1  0  0  0  0
 30 32  1  0  0  0  0
 30 75  1  0  0  0  0
 31 76  1  0  0  0  0
 31 77  1  0  0  0  0
 31 78  1  0  0  0  0
 32 79  1  0  0  0  0
 32 80  1  0  0  0  0
 32 81  1  0  0  0  0
 33 34  2  0  0  0  0
 33 35  2  0  0  0  0
 33 36  1  0  0  0  0
 36 37  1  0  0  0  0
 36 41  2  0  0  0  0
 37 38  2  0  0  0  0
 37 82  1  0  0  0  0
 38 39  1  0  0  0  0
 38 83  1  0  0  0  0
 39 40  2  0  0  0  0
 39 44  1  0  0  0  0
 40 41  1  0  0  0  0
 40 42  1  0  0  0  0
 41 84  1  0  0  0  0
 42 43  1  0  0  0  0
 43 44  1  0  0  0  0
 43 85  1  0  0  0  0
 43 86  1  0  0  0  0
 45 46  1  0  0  0  0
 45 87  1  0  0  0  0
 46 88  1  0  0  0  0
 47 48  1  0  0  0  0
 47 89  1  0  0  0  0
M  END
>  <Energy>
64.8208

$$$$