507272
  -OEChem-03242010103D

 66 72  0     1  0  0  0  0  0999 V2000
    1.2969    3.1425    1.8135 O   0  0  0  0  0  0  0  0  0  0  0  0
   -1.2677   -3.1613   -1.9032 O   0  0  0  0  0  0  0  0  0  0  0  0
   -2.5010    3.1163    0.6242 O   0  0  0  0  0  0  0  0  0  0  0  0
    2.6078   -2.5997    1.6692 O   0  0  0  0  0  0  0  0  0  0  0  0
   -2.6902    2.6861   -1.6173 O   0  0  0  0  0  0  0  0  0  0  0  0
    2.5816   -3.1769   -0.5468 O   0  0  0  0  0  0  0  0  0  0  0  0
   -1.2695    1.4153   -0.2980 N   0  0  0  0  0  0  0  0  0  0  0  0
    1.2637   -1.4323    0.2233 N   0  0  0  0  0  0  0  0  0  0  0  0
    0.8834    0.9596    0.9438 C   0  0  0  0  0  0  0  0  0  0  0  0
   -0.8840   -0.9779   -1.0210 C   0  0  0  0  0  0  0  0  0  0  0  0
   -0.7755   -0.4437    1.3404 C   0  0  0  0  0  0  0  0  0  0  0  0
    0.7648    0.4274   -1.4176 C   0  0  0  0  0  0  0  0  0  0  0  0
   -0.6666    1.0777    1.0185 C   0  0  2  0  0  0  0  0  0  0  0  0
    0.7770   -0.5504    1.3168 C   0  0  1  0  0  0  0  0  0  0  0  0
   -0.7873    0.5299   -1.3884 C   0  0  2  0  0  0  0  0  0  0  0  0
    0.6662   -1.0899   -1.0924 C   0  0  1  0  0  0  0  0  0  0  0  0
    1.5056    1.3406   -0.4156 C   0  0  2  0  0  0  0  0  0  0  0  0
   -1.5116   -1.3576    0.3387 C   0  0  1  0  0  0  0  0  0  0  0  0
    1.5135    1.7656    2.0733 C   0  0  0  0  0  0  0  0  0  0  0  0
   -1.5089   -1.7863   -2.1516 C   0  0  0  0  0  0  0  0  0  0  0  0
    3.0123    1.1642   -0.5079 C   0  0  0  0  0  0  0  0  0  0  0  0
   -3.0236   -1.2060    0.3175 C   0  0  0  0  0  0  0  0  0  0  0  0
   -2.1960    2.4323   -0.5210 C   0  0  0  0  0  0  0  0  0  0  0  0
    2.1854   -2.4666    0.3745 C   0  0  0  0  0  0  0  0  0  0  0  0
    3.6519    0.2099    0.2829 C   0  0  0  0  0  0  0  0  0  0  0  0
   -3.8290   -2.2965   -0.0102 C   0  0  0  0  0  0  0  0  0  0  0  0
    3.7545    1.9563   -1.3836 C   0  0  0  0  0  0  0  0  0  0  0  0
   -3.6054    0.0235    0.6262 C   0  0  0  0  0  0  0  0  0  0  0  0
    5.0348    0.0478    0.1982 C   0  0  0  0  0  0  0  0  0  0  0  0
   -5.2167   -2.1575   -0.0294 C   0  0  0  0  0  0  0  0  0  0  0  0
    5.1374    1.7939   -1.4683 C   0  0  0  0  0  0  0  0  0  0  0  0
   -4.9932    0.1623    0.6071 C   0  0  0  0  0  0  0  0  0  0  0  0
    5.7774    0.8396   -0.6774 C   0  0  0  0  0  0  0  0  0  0  0  0
   -5.7988   -0.9282    0.2792 C   0  0  0  0  0  0  0  0  0  0  0  0
   -3.4530    4.1770    0.4877 C   0  0  0  0  0  0  0  0  0  0  0  0
    3.5636   -3.6370    1.9145 C   0  0  0  0  0  0  0  0  0  0  0  0
   -1.1615   -0.6195    2.3557 H   0  0  0  0  0  0  0  0  0  0  0  0
    1.1434    0.6013   -2.4359 H   0  0  0  0  0  0  0  0  0  0  0  0
   -1.0367    1.7021    1.8393 H   0  0  0  0  0  0  0  0  0  0  0  0
    1.1823   -0.8096    2.3011 H   0  0  0  0  0  0  0  0  0  0  0  0
   -1.2132    0.7933   -2.3634 H   0  0  0  0  0  0  0  0  0  0  0  0
    1.0689   -1.7026   -1.9067 H   0  0  0  0  0  0  0  0  0  0  0  0
    1.2707    2.3868   -0.6535 H   0  0  0  0  0  0  0  0  0  0  0  0
   -1.2790   -2.3994    0.5992 H   0  0  0  0  0  0  0  0  0  0  0  0
    1.0373    1.5401    3.0349 H   0  0  0  0  0  0  0  0  0  0  0  0
    2.5831    1.5985    2.2175 H   0  0  0  0  0  0  0  0  0  0  0  0
   -2.5818   -1.6155   -2.2695 H   0  0  0  0  0  0  0  0  0  0  0  0
   -1.0588   -1.5417   -3.1218 H   0  0  0  0  0  0  0  0  0  0  0  0
    1.9774    3.4373    1.1851 H   0  0  0  0  0  0  0  0  0  0  0  0
   -0.3232   -3.3381   -2.0447 H   0  0  0  0  0  0  0  0  0  0  0  0
    3.1862   -0.3177    1.0926 H   0  0  0  0  0  0  0  0  0  0  0  0
   -3.3943   -3.2653   -0.2385 H   0  0  0  0  0  0  0  0  0  0  0  0
    3.2670    2.7019   -2.0059 H   0  0  0  0  0  0  0  0  0  0  0  0
   -3.0772    0.8301    1.0955 H   0  0  0  0  0  0  0  0  0  0  0  0
    5.5387   -0.6692    0.8401 H   0  0  0  0  0  0  0  0  0  0  0  0
   -5.8443   -3.0080   -0.2789 H   0  0  0  0  0  0  0  0  0  0  0  0
    5.7160    2.4116   -2.1489 H   0  0  0  0  0  0  0  0  0  0  0  0
   -5.4496    1.1051    0.8952 H   0  0  0  0  0  0  0  0  0  0  0  0
    6.8551    0.7192   -0.7372 H   0  0  0  0  0  0  0  0  0  0  0  0
   -6.8798   -0.8233    0.2764 H   0  0  0  0  0  0  0  0  0  0  0  0
   -3.6022    4.6276    1.4724 H   0  0  0  0  0  0  0  0  0  0  0  0
   -3.0714    4.9420   -0.1949 H   0  0  0  0  0  0  0  0  0  0  0  0
   -4.4101    3.7830    0.1332 H   0  0  0  0  0  0  0  0  0  0  0  0
    4.4770   -3.4529    1.3410 H   0  0  0  0  0  0  0  0  0  0  0  0
    3.8100   -3.6263    2.9795 H   0  0  0  0  0  0  0  0  0  0  0  0
    3.1367   -4.6123    1.6622 H   0  0  0  0  0  0  0  0  0  0  0  0
  1 19  1  0  0  0  0
  1 49  1  0  0  0  0
  2 20  1  0  0  0  0
  2 50  1  0  0  0  0
  3 23  1  0  0  0  0
  3 35  1  0  0  0  0
  4 24  1  0  0  0  0
  4 36  1  0  0  0  0
  5 23  2  0  0  0  0
  6 24  2  0  0  0  0
  7 13  1  0  0  0  0
  7 15  1  0  0  0  0
  7 23  1  0  0  0  0
  8 14  1  0  0  0  0
  8 16  1  0  0  0  0
  8 24  1  0  0  0  0
  9 13  1  0  0  0  0
  9 14  1  0  0  0  0
  9 17  1  0  0  0  0
  9 19  1  0  0  0  0
 10 15  1  0  0  0  0
 10 16  1  0  0  0  0
 10 18  1  0  0  0  0
 10 20  1  0  0  0  0
 11 13  1  0  0  0  0
 11 14  1  0  0  0  0
 11 18  1  0  0  0  0
 11 37  1  0  0  0  0
 12 15  1  0  0  0  0
 12 16  1  0  0  0  0
 12 17  1  0  0  0  0
 12 38  1  0  0  0  0
 13 39  1  0  0  0  0
 14 40  1  0  0  0  0
 15 41  1  0  0  0  0
 16 42  1  0  0  0  0
 17 21  1  0  0  0  0
 17 43  1  0  0  0  0
 18 22  1  0  0  0  0
 18 44  1  0  0  0  0
 19 45  1  0  0  0  0
 19 46  1  0  0  0  0
 20 47  1  0  0  0  0
 20 48  1  0  0  0  0
 21 25  2  0  0  0  0
 21 27  1  0  0  0  0
 22 26  2  0  0  0  0
 22 28  1  0  0  0  0
 25 29  1  0  0  0  0
 25 51  1  0  0  0  0
 26 30  1  0  0  0  0
 26 52  1  0  0  0  0
 27 31  2  0  0  0  0
 27 53  1  0  0  0  0
 28 32  2  0  0  0  0
 28 54  1  0  0  0  0
 29 33  2  0  0  0  0
 29 55  1  0  0  0  0
 30 34  2  0  0  0  0
 30 56  1  0  0  0  0
 31 33  1  0  0  0  0
 31 57  1  0  0  0  0
 32 34  1  0  0  0  0
 32 58  1  0  0  0  0
 33 59  1  0  0  0  0
 34 60  1  0  0  0  0
 35 61  1  0  0  0  0
 35 62  1  0  0  0  0
 35 63  1  0  0  0  0
 36 64  1  0  0  0  0
 36 65  1  0  0  0  0
 36 66  1  0  0  0  0
M  END
> <PUBCHEM_COMPOUND_CID>
507272

> <PUBCHEM_CONFORMER_RMSD>
1

> <PUBCHEM_CONFORMER_DIVERSEORDER>
1
2

> <PUBCHEM_MMFF94_PARTIAL_CHARGES>
44
1 -0.68
13 0.22
14 0.22
15 0.22
16 0.22
17 0.14
18 0.14
19 0.28
2 -0.68
20 0.28
21 -0.14
22 -0.14
23 0.78
24 0.78
25 -0.15
26 -0.15
27 -0.15
28 -0.15
29 -0.15
3 -0.43
30 -0.15
31 -0.15
32 -0.15
33 -0.15
34 -0.15
35 0.28
36 0.28
4 -0.43
49 0.4
5 -0.57
50 0.4
51 0.15
52 0.15
53 0.15
54 0.15
55 0.15
56 0.15
57 0.15
58 0.15
59 0.15
6 -0.57
60 0.15
7 -0.51
8 -0.51

> <PUBCHEM_EFFECTIVE_ROTOR_COUNT>
8.8

> <PUBCHEM_PHARMACOPHORE_FEATURES>
14
1 1 acceptor
1 1 donor
1 2 acceptor
1 2 donor
1 5 acceptor
1 6 acceptor
4 10 12 15 16 rings
4 9 11 13 14 rings
6 21 25 27 29 31 33 rings
6 22 26 28 30 32 34 rings
6 7 10 11 13 15 18 rings
6 7 9 12 13 15 17 rings
6 8 10 11 14 16 18 rings
6 8 9 12 14 16 17 rings

> <PUBCHEM_HEAVY_ATOM_COUNT>
36

> <PUBCHEM_ATOM_DEF_STEREO_COUNT>
2

> <PUBCHEM_ATOM_UDEF_STEREO_COUNT>
4

> <PUBCHEM_BOND_DEF_STEREO_COUNT>
0

> <PUBCHEM_BOND_UDEF_STEREO_COUNT>
0

> <PUBCHEM_ISOTOPIC_ATOM_COUNT>
0

> <PUBCHEM_COMPONENT_COUNT>
1

> <PUBCHEM_CACTVS_TAUTO_COUNT>
1

> <PUBCHEM_CONFORMER_ID>
0007BD8800000001

> <PUBCHEM_MMFF94_ENERGY>
142.3844

> <PUBCHEM_FEATURE_SELFOVERLAP>
84.096

> <PUBCHEM_SHAPE_FINGERPRINT>
10190108 129 18261970634030153043
10366900 7 18336548325614021563
10863032 1 18265050236923687968
10948715 1 18336553707298045124
11421498 54 18334861666202948123
11578080 2 17096352961104080399
11963148 33 18189612920484641123
12107183 9 17830170203783419593
12236239 1 18340773748989604958
12422481 6 18125457315189009739
12788726 201 18409451422434444720
13140716 1 18050279568279210450
14787075 74 18335707177675481418
14790565 3 18191313881935550676
14955137 171 17977673335804726027
1601671 61 18060430126667617947
16945 1 18199726176516248172
17349148 13 17386011701370135724
19319366 153 18335979865677151138
20691752 17 17908405198001935076
21033648 29 15267063605826814451
21421861 104 18335424534383679594
23559900 14 17911802367047248734
3493558 16 18187655656315763372
350125 39 18411140250825419424
460360 51 17750225903028498910
6086070 43 17917421043622260425
70251023 43 17844229942567709526

> <PUBCHEM_SHAPE_MULTIPOLES>
695.69
9.97
4.16
1.79
0.1
0.46
0.02
-0.27
0.55
0.72
-0.75
-0.78
-0.2
-1.72

> <PUBCHEM_SHAPE_SELFOVERLAP>
1564.181

> <PUBCHEM_SHAPE_VOLUME>
356.1

> <PUBCHEM_COORDINATE_TYPE>
2
5
10

$$$$