15940304
  -OEChem-03242010103D

 71 76  0     1  0  0  0  0  0999 V2000
    0.2546   -1.4863    2.1275 O   0  0  0  0  0  0  0  0  0  0  0  0
    4.2268   -2.6485    0.0487 O   0  0  0  0  0  0  0  0  0  0  0  0
   -4.4886    2.7002   -1.5638 O   0  0  0  0  0  0  0  0  0  0  0  0
   -3.4378    3.8574    0.7347 O   0  0  0  0  0  0  0  0  0  0  0  0
    2.1692   -2.3981    1.1350 N   0  0  0  0  0  0  0  0  0  0  0  0
   -2.8246   -3.8404   -0.3432 N   0  0  2  0  0  0  0  0  0  0  0  0
    2.1126   -0.0829    1.4732 C   0  0  1  0  0  0  0  0  0  0  0  0
    3.4518   -0.4734    0.7717 C   0  0  2  0  0  0  0  0  0  0  0  0
    1.3423    0.9668    0.6197 C   0  0  0  0  0  0  0  0  0  0  0  0
    3.6075    0.3055   -0.5671 C   0  0  0  0  0  0  0  0  0  0  0  0
    1.1511    0.3694   -0.7727 C   0  0  0  0  0  0  0  0  0  0  0  0
    2.3154    2.1360    0.4698 C   0  0  0  0  0  0  0  0  0  0  0  0
    2.3680    0.0141   -1.4102 C   0  0  0  0  0  0  0  0  0  0  0  0
    3.5357    1.7797   -0.1697 C   0  0  0  0  0  0  0  0  0  0  0  0
    1.3721   -1.3892    1.6386 C   0  0  0  0  0  0  0  0  0  0  0  0
    3.3666   -1.9706    0.5945 C   0  0  0  0  0  0  0  0  0  0  0  0
   -0.0656    0.1663   -1.4073 C   0  0  0  0  0  0  0  0  0  0  0  0
    2.0903    3.4388    0.8883 C   0  0  0  0  0  0  0  0  0  0  0  0
    2.3646   -0.5434   -2.6805 C   0  0  0  0  0  0  0  0  0  0  0  0
    4.5235    2.7284   -0.3872 C   0  0  0  0  0  0  0  0  0  0  0  0
    1.7804   -3.7947    1.1706 C   0  0  0  0  0  0  0  0  0  0  0  0
   -0.0655   -0.3969   -2.6850 C   0  0  0  0  0  0  0  0  0  0  0  0
    3.0885    4.3902    0.6685 C   0  0  0  0  0  0  0  0  0  0  0  0
    1.1381   -0.7483   -3.3156 C   0  0  0  0  0  0  0  0  0  0  0  0
    4.2927    4.0387    0.0374 C   0  0  0  0  0  0  0  0  0  0  0  0
    0.5582   -4.0151    0.3993 C   0  0  0  0  0  0  0  0  0  0  0  0
   -0.4462   -4.1994   -0.2332 C   0  0  0  0  0  0  0  0  0  0  0  0
   -1.6686   -4.4267   -1.0094 C   0  0  0  0  0  0  0  0  0  0  0  0
   -2.6760   -2.3877   -0.2344 C   0  0  0  0  0  0  0  0  0  0  0  0
   -3.0106   -4.4316    0.9833 C   0  0  0  0  0  0  0  0  0  0  0  0
   -3.9332   -1.7515    0.3596 C   0  0  0  0  0  0  0  0  0  0  0  0
   -3.8020   -0.2525    0.4563 C   0  0  0  0  0  0  0  0  0  0  0  0
   -4.2094    0.5370   -0.6083 C   0  0  0  0  0  0  0  0  0  0  0  0
   -3.2761    0.3118    1.6086 C   0  0  0  0  0  0  0  0  0  0  0  0
   -4.0885    1.9237   -0.5185 C   0  0  0  0  0  0  0  0  0  0  0  0
   -3.1547    1.6985    1.6983 C   0  0  0  0  0  0  0  0  0  0  0  0
   -3.5610    2.5045    0.6348 C   0  0  0  0  0  0  0  0  0  0  0  0
   -3.5125    2.9999   -2.5595 C   0  0  0  0  0  0  0  0  0  0  0  0
   -2.8891    4.3705    1.9472 C   0  0  0  0  0  0  0  0  0  0  0  0
    2.3249    0.3137    2.4748 H   0  0  0  0  0  0  0  0  0  0  0  0
    4.2939   -0.2603    1.4435 H   0  0  0  0  0  0  0  0  0  0  0  0
    0.3915    1.2630    1.0738 H   0  0  0  0  0  0  0  0  0  0  0  0
    4.5326    0.0542   -1.0953 H   0  0  0  0  0  0  0  0  0  0  0  0
   -0.9987    0.4381   -0.9279 H   0  0  0  0  0  0  0  0  0  0  0  0
    1.1622    3.7194    1.3751 H   0  0  0  0  0  0  0  0  0  0  0  0
    3.2903   -0.8189   -3.1746 H   0  0  0  0  0  0  0  0  0  0  0  0
    5.4563    2.4662   -0.8750 H   0  0  0  0  0  0  0  0  0  0  0  0
    1.6028   -4.0584    2.2193 H   0  0  0  0  0  0  0  0  0  0  0  0
    2.5943   -4.4228    0.7952 H   0  0  0  0  0  0  0  0  0  0  0  0
   -1.0087   -0.5650   -3.1983 H   0  0  0  0  0  0  0  0  0  0  0  0
    2.9325    5.4171    0.9889 H   0  0  0  0  0  0  0  0  0  0  0  0
    1.1136   -1.1853   -4.3103 H   0  0  0  0  0  0  0  0  0  0  0  0
    5.0539    4.7977   -0.1229 H   0  0  0  0  0  0  0  0  0  0  0  0
   -1.5606   -4.0044   -2.0160 H   0  0  0  0  0  0  0  0  0  0  0  0
   -1.8271   -5.5019   -1.1571 H   0  0  0  0  0  0  0  0  0  0  0  0
   -1.8097   -2.0975    0.3725 H   0  0  0  0  0  0  0  0  0  0  0  0
   -2.5176   -1.9670   -1.2360 H   0  0  0  0  0  0  0  0  0  0  0  0
   -4.0253   -4.2499    1.3526 H   0  0  0  0  0  0  0  0  0  0  0  0
   -2.9226   -5.5245    0.9389 H   0  0  0  0  0  0  0  0  0  0  0  0
   -2.3001   -4.0653    1.7336 H   0  0  0  0  0  0  0  0  0  0  0  0
   -4.1477   -2.1256    1.3674 H   0  0  0  0  0  0  0  0  0  0  0  0
   -4.8126   -2.0042   -0.2477 H   0  0  0  0  0  0  0  0  0  0  0  0
   -4.6188    0.0867   -1.5089 H   0  0  0  0  0  0  0  0  0  0  0  0
   -2.9533   -0.3084    2.4402 H   0  0  0  0  0  0  0  0  0  0  0  0
   -2.7345    2.0791    2.6228 H   0  0  0  0  0  0  0  0  0  0  0  0
   -3.1557    2.0808   -3.0353 H   0  0  0  0  0  0  0  0  0  0  0  0
   -2.6711    3.5468   -2.1221 H   0  0  0  0  0  0  0  0  0  0  0  0
   -3.9812    3.6293   -3.3209 H   0  0  0  0  0  0  0  0  0  0  0  0
   -1.8546    4.0408    2.0928 H   0  0  0  0  0  0  0  0  0  0  0  0
   -3.5257    4.1396    2.8081 H   0  0  0  0  0  0  0  0  0  0  0  0
   -2.8645    5.4612    1.8536 H   0  0  0  0  0  0  0  0  0  0  0  0
  1 15  2  0  0  0  0
  2 16  2  0  0  0  0
  3 35  1  0  0  0  0
  3 38  1  0  0  0  0
  4 37  1  0  0  0  0
  4 39  1  0  0  0  0
  5 15  1  0  0  0  0
  5 16  1  0  0  0  0
  5 21  1  0  0  0  0
  6 28  1  0  0  0  0
  6 29  1  0  0  0  0
  6 30  1  0  0  0  0
  7  8  1  0  0  0  0
  7  9  1  0  0  0  0
  7 15  1  0  0  0  0
  7 40  1  0  0  0  0
  8 10  1  0  0  0  0
  8 16  1  0  0  0  0
  8 41  1  0  0  0  0
  9 11  1  0  0  0  0
  9 12  1  0  0  0  0
  9 42  1  0  0  0  0
 10 13  1  0  0  0  0
 10 14  1  0  0  0  0
 10 43  1  0  0  0  0
 11 13  1  0  0  0  0
 11 17  2  0  0  0  0
 12 14  1  0  0  0  0
 12 18  2  0  0  0  0
 13 19  2  0  0  0  0
 14 20  2  0  0  0  0
 17 22  1  0  0  0  0
 17 44  1  0  0  0  0
 18 23  1  0  0  0  0
 18 45  1  0  0  0  0
 19 24  1  0  0  0  0
 19 46  1  0  0  0  0
 20 25  1  0  0  0  0
 20 47  1  0  0  0  0
 21 26  1  0  0  0  0
 21 48  1  0  0  0  0
 21 49  1  0  0  0  0
 22 24  2  0  0  0  0
 22 50  1  0  0  0  0
 23 25  2  0  0  0  0
 23 51  1  0  0  0  0
 24 52  1  0  0  0  0
 25 53  1  0  0  0  0
 26 27  3  0  0  0  0
 27 28  1  0  0  0  0
 28 54  1  0  0  0  0
 28 55  1  0  0  0  0
 29 31  1  0  0  0  0
 29 56  1  0  0  0  0
 29 57  1  0  0  0  0
 30 58  1  0  0  0  0
 30 59  1  0  0  0  0
 30 60  1  0  0  0  0
 31 32  1  0  0  0  0
 31 61  1  0  0  0  0
 31 62  1  0  0  0  0
 32 33  2  0  0  0  0
 32 34  1  0  0  0  0
 33 35  1  0  0  0  0
 33 63  1  0  0  0  0
 34 36  2  0  0  0  0
 34 64  1  0  0  0  0
 35 37  2  0  0  0  0
 36 37  1  0  0  0  0
 36 65  1  0  0  0  0
 38 66  1  0  0  0  0
 38 67  1  0  0  0  0
 38 68  1  0  0  0  0
 39 69  1  0  0  0  0
 39 70  1  0  0  0  0
 39 71  1  0  0  0  0
M  END
> <PUBCHEM_COMPOUND_CID>
15940304

> <PUBCHEM_CONFORMER_RMSD>
1

> <PUBCHEM_CONFORMER_DIVERSEORDER>
1
249
166
17
153
132
18
39
232
174
189
123
30
82
55
200
196
22
216
195
57
147
265
165
158
142
269
259
75
100
112
230
104
93
67
180
205
211
2
276
227
61
97
170
188
239
53
115
245
125
60
79
226
172
27
131
266
40
206
5
13
215
6
84
8
110
194
260
251
129
168
14
138
169
99
25
113
136
280
264
71
121
217
199
45
109
54
246
122
187
48
77
256
20
91
197
108
111
241
181
70
148
64
12
152
270
127
191
225
73
15
7
234
186
119
167
224
56
103
177
38
47
4
157
150
90
258
235
223
95
98
213
139
16
83
252
85
107
233
96
236
173
130
72
278
10
88
118
193
50
263
105
159
145
214
36
124
144
284
274
149
222
41
171
3
51
62
28
68
262
175
154
120
228
65
114
81
255
242
58
49
219
250
23
101
31
156
237
11
32
26
221
46
42
208
106
178
80
135
133
275
161
261
35
283
59
102
43
247
192
63
203
268
243
116
86
184
146
137
9
52
257
66
141
34
185
29
204
272
273
183
155
78
209
128
277
281
94
19
238
212
134
210
162
69
160
267
176
21
271
33
126
231
198
143
218
140
74
24
179
229
76
253
89
248
164
207
44
254
190
117
92
37
163
220
244
151
201
87
285
202
240
182
282
279

> <PUBCHEM_MMFF94_PARTIAL_CHARGES>
50
1 -0.57
10 0.29
11 -0.14
12 -0.14
13 -0.14
14 -0.14
15 0.57
16 0.57
17 -0.15
18 -0.15
19 -0.15
2 -0.57
20 -0.15
21 0.5
22 -0.15
23 -0.15
24 -0.15
25 -0.15
26 -0.2
27 -0.2
28 0.47
29 0.27
3 -0.36
30 0.27
31 0.14
32 -0.14
33 -0.15
34 -0.15
35 0.08
36 -0.15
37 0.08
38 0.28
39 0.28
4 -0.36
44 0.15
45 0.15
46 0.15
47 0.15
5 -0.42
50 0.15
51 0.15
52 0.15
53 0.15
6 -0.81
63 0.15
64 0.15
65 0.15
7 0.06
8 0.06
9 0.29

> <PUBCHEM_EFFECTIVE_ROTOR_COUNT>
7.2

> <PUBCHEM_PHARMACOPHORE_FEATURES>
10
1 1 acceptor
1 2 acceptor
1 3 acceptor
1 4 acceptor
1 6 cation
5 5 7 8 15 16 rings
6 11 13 17 19 22 24 rings
6 12 14 18 20 23 25 rings
6 32 33 34 35 36 37 rings
8 7 8 9 10 11 12 13 14 rings

> <PUBCHEM_HEAVY_ATOM_COUNT>
39

> <PUBCHEM_ATOM_DEF_STEREO_COUNT>
0

> <PUBCHEM_ATOM_UDEF_STEREO_COUNT>
2

> <PUBCHEM_BOND_DEF_STEREO_COUNT>
0

> <PUBCHEM_BOND_UDEF_STEREO_COUNT>
0

> <PUBCHEM_ISOTOPIC_ATOM_COUNT>
0

> <PUBCHEM_COMPONENT_COUNT>
1

> <PUBCHEM_CACTVS_TAUTO_COUNT>
1

> <PUBCHEM_CONFORMER_ID>
00F33AD000000001

> <PUBCHEM_MMFF94_ENERGY>
133.8379

> <PUBCHEM_FEATURE_SELFOVERLAP>
50.866

> <PUBCHEM_SHAPE_FINGERPRINT>
10032420 55 17909531089393053801
10439779 11 18265881471883108723
11434127 23 18201165441574867980
11828532 37 16460514582055422971
12058002 1 17344092709694210538
12104220 1 17543336611690904804
12156800 1 14363160881758264774
12422481 6 17677881341368283330
12788726 201 17905599257181468250
13583140 156 18336256864844064277
14040222 75 15893634274344442901
144659 178 17690848860845846284
17921350 177 18343018861312246908
19315092 285 17030175765494009939
20764821 26 17187287868453098213
21857420 4 17110146128126098381
3493558 16 16820240663290072268
35225 105 18270947047065493423
469060 322 16808398768481897487
550186 7 17837506502278639374

> <PUBCHEM_SHAPE_MULTIPOLES>
769.16
9.07
7.16
2.35
0.83
0.5
-1.69
-6.08
0.31
3.58
1.93
0.35
-0.33
0.23

> <PUBCHEM_SHAPE_SELFOVERLAP>
1700.225

> <PUBCHEM_SHAPE_VOLUME>
414.8

> <PUBCHEM_COORDINATE_TYPE>
2
5
10

$$$$