60
 OpenBabel03292021493D

199199  0  0  1  0  0  0  0  0999 V2000
    6.4501   -2.5114    2.4105 C   0  0  0  0  0  0  0  0  0  0  0  0
    7.7544   -3.1697    1.8806 C   0  0  0  0  0  0  0  0  0  0  0  0
    8.0320   -4.2194    0.7067 C   0  0  0  0  0  0  0  0  0  0  0  0
    7.3316   -4.7557   -0.3367 C   0  0  0  0  0  0  0  0  0  0  0  0
    7.5468   -6.0690   -1.4470 C   0  0  0  0  0  0  0  0  0  0  0  0
    8.3794   -6.3997   -3.0060 C   0  0  1  0  0  0  0  0  0  0  0  0
    9.1458   -5.0627   -3.1527 C   0  0  0  0  0  0  0  0  0  0  0  0
    9.3616   -7.9231   -3.5628 C   0  0  1  0  0  0  0  0  0  0  0  0
    9.9205   -8.4784   -2.3387 O   0  0  0  0  0  0  0  0  0  0  0  0
   10.3451   -8.6830   -5.0574 C   0  0  1  0  0  0  0  0  0  0  0  0
   10.4428  -10.0754   -6.3827 C   0  0  0  0  0  0  0  0  0  0  0  0
    9.3871  -10.5467   -6.8459 O   0  0  0  0  0  0  0  0  0  0  0  0
   11.8021  -10.5798   -7.1064 N   0  0  0  0  0  0  0  0  0  0  0  0
   12.2805  -11.7773   -8.4343 C   0  0  1  0  0  0  0  0  0  0  0  0
   12.4008  -13.3785   -8.0749 C   0  0  0  0  0  0  0  0  0  0  0  0
   12.9526  -14.5909   -8.9820 C   0  0  0  0  0  0  0  0  0  0  0  0
   13.2612  -11.4282   -9.8379 C   0  0  0  0  0  0  0  0  0  0  0  0
   12.7643  -10.6238  -10.6432 O   0  0  0  0  0  0  0  0  0  0  0  0
   14.5433  -11.9601  -10.2439 N   0  0  0  0  0  0  0  0  0  0  0  0
   15.3747  -13.0050   -9.6213 C   0  0  0  0  0  0  0  0  0  0  0  0
   15.3170  -11.2985  -11.3827 C   0  0  0  0  0  0  0  0  0  0  0  0
   15.6844  -11.6052  -12.8893 C   0  0  0  0  0  0  0  0  0  0  0  0
   16.7629  -11.1715  -13.3689 O   0  0  0  0  0  0  0  0  0  0  0  0
   14.7092  -12.0410  -13.8035 N   0  0  0  0  0  0  0  0  0  0  0  0
   14.0654  -13.3022  -13.5081 C   0  0  0  0  0  0  0  0  0  0  0  0
   14.6222  -11.5266  -15.2288 C   0  0  1  0  0  0  0  0  0  0  0  0
   14.2945  -10.0095  -15.3482 C   0  0  1  0  0  0  0  0  0  0  0  0
   13.0562   -9.8336  -16.2106 C   0  0  0  0  0  0  0  0  0  0  0  0
   14.3083   -9.2057  -14.0390 C   0  0  0  0  0  0  0  0  0  0  0  0
   14.1098   -7.7036  -14.1836 C   0  0  0  0  0  0  0  0  0  0  0  0
   15.5402  -12.2085  -16.3307 C   0  0  0  0  0  0  0  0  0  0  0  0
   15.5738  -13.4515  -16.3690 O   0  0  0  0  0  0  0  0  0  0  0  0
   16.2530  -11.5969  -17.3257 N   0  0  0  0  0  0  0  0  0  0  0  0
   16.5238  -10.1769  -17.7405 C   0  0  2  0  0  0  0  0  0  0  0  0
   17.2435   -9.4965  -16.5368 C   0  0  0  0  0  0  0  0  0  0  0  0
   17.3346   -7.9807  -16.5675 C   0  0  0  0  0  0  0  0  0  0  0  0
   18.6136  -10.1380  -16.2400 C   0  0  0  0  0  0  0  0  0  0  0  0
   15.1743   -9.7344  -18.5064 C   0  0  0  0  0  0  0  0  0  0  0  0
   14.3687  -10.6344  -18.7800 O   0  0  0  0  0  0  0  0  0  0  0  0
   14.8914   -8.4449  -18.9598 N   0  0  0  0  0  0  0  0  0  0  0  0
   15.9179   -7.7661  -19.7366 C   0  0  0  0  0  0  0  0  0  0  0  0
   13.4309   -8.0350  -19.2224 C   0  0  2  0  0  0  0  0  0  0  0  0
   12.7978   -8.4720  -20.5884 C   0  0  0  0  0  0  0  0  0  0  0  0
   12.4141   -9.9598  -20.7870 C   0  0  0  0  0  0  0  0  0  0  0  0
   11.4469  -10.5148  -19.7357 C   0  0  0  0  0  0  0  0  0  0  0  0
   11.7819  -10.1898  -22.1658 C   0  0  0  0  0  0  0  0  0  0  0  0
   13.1815   -6.4901  -19.0980 C   0  0  0  0  0  0  0  0  0  0  0  0
   13.8311   -5.6848  -19.7785 O   0  0  0  0  0  0  0  0  0  0  0  0
   12.2243   -5.9382  -18.2889 N   0  0  0  0  0  0  0  0  0  0  0  0
   11.3219   -6.4873  -17.2534 C   0  0  1  0  0  0  0  0  0  0  0  0
   11.3260   -5.5583  -16.0559 C   0  0  0  0  0  0  0  0  0  0  0  0
    9.9690   -6.9664  -17.8588 C   0  0  0  0  0  0  0  0  0  0  0  0
   10.0005   -7.6038  -18.9235 O   0  0  0  0  0  0  0  0  0  0  0  0
    8.7367   -6.9232  -17.2762 N   0  0  0  0  0  0  0  0  0  0  0  0
    8.0046   -5.9164  -16.4749 C   0  0  2  0  0  0  0  0  0  0  0  0
    8.2010   -4.5087  -17.0403 C   0  0  0  0  0  0  0  0  0  0  0  0
    8.0997   -5.9914  -14.9110 C   0  0  0  0  0  0  0  0  0  0  0  0
    8.8533   -5.2293  -14.3204 O   0  0  0  0  0  0  0  0  0  0  0  0
    7.3865   -7.0176  -14.2504 N   0  0  0  0  0  0  0  0  0  0  0  0
    5.9600   -7.2168  -14.5158 C   0  0  0  0  0  0  0  0  0  0  0  0
    7.8130   -7.5455  -12.9293 C   0  0  1  0  0  0  0  0  0  0  0  0
    9.2496   -7.9571  -12.8783 C   0  0  0  0  0  0  0  0  0  0  0  0
    9.7893   -9.1691  -13.5791 C   0  0  0  0  0  0  0  0  0  0  0  0
    9.4609   -9.2221  -15.0613 C   0  0  0  0  0  0  0  0  0  0  0  0
   11.2707   -8.9497  -13.3624 C   0  0  0  0  0  0  0  0  0  0  0  0
    7.5319   -6.6530  -11.6916 C   0  0  0  0  0  0  0  0  0  0  0  0
    6.6171   -6.9886  -10.9291 O   0  0  0  0  0  0  0  0  0  0  0  0
    8.2636   -5.4796  -11.5056 N   0  0  0  0  0  0  0  0  0  0  0  0
    9.7344   -5.4564  -11.5076 C   0  0  0  0  0  0  0  0  0  0  0  0
    7.7138   -4.4434  -10.6357 C   0  0  1  0  0  0  0  0  0  0  0  0
    6.2190   -4.1706  -10.7090 C   0  0  0  0  0  0  0  0  0  0  0  0
    5.7986   -3.0135   -9.7743 C   0  0  0  0  0  0  0  0  0  0  0  0
    6.4345   -1.6934  -10.1725 C   0  0  0  0  0  0  0  0  0  0  0  0
    4.2839   -2.9529   -9.7504 C   0  0  0  0  0  0  0  0  0  0  0  0
    8.4419   -4.4088   -9.2670 C   0  0  0  0  0  0  0  0  0  0  0  0
    9.3016   -3.5298   -9.1653 O   0  0  0  0  0  0  0  0  0  0  0  0
    8.3130   -5.4125   -8.3238 N   0  0  0  0  0  0  0  0  0  0  0  0
    6.9763   -5.8277   -7.8850 C   0  0  0  0  0  0  0  0  0  0  0  0
    9.5384   -6.1219   -7.7860 C   0  0  1  0  0  0  0  0  0  0  0  0
   10.8329   -5.2792   -7.7150 C   0  0  0  0  0  0  0  0  0  0  0  0
   11.7661   -5.3344   -8.9110 C   0  0  0  0  0  0  0  0  0  0  0  0
   10.7049   -3.9718   -6.9222 C   0  0  0  0  0  0  0  0  0  0  0  0
    9.4239   -6.9814   -6.4419 C   0  0  0  0  0  0  0  0  0  0  0  0
    8.3365   -7.3609   -6.0217 O   0  0  0  0  0  0  0  0  0  0  0  0
   10.6404   -7.4881   -5.8612 N   0  0  0  0  0  0  0  0  0  0  0  0
   11.5842   -6.5772   -5.1539 C   0  0  0  0  0  0  0  0  0  0  0  0
    6.6569   -2.0598    3.4060 H   0  0  0  0  0  0  0  0  0  0  0  0
    5.6271   -3.2082    2.5823 H   0  0  0  0  0  0  0  0  0  0  0  0
    6.1042   -1.6662    1.8048 H   0  0  0  0  0  0  0  0  0  0  0  0
    8.1399   -3.6730    2.7837 H   0  0  0  0  0  0  0  0  0  0  0  0
    8.4463   -2.3253    1.7314 H   0  0  0  0  0  0  0  0  0  0  0  0
    9.0569   -4.6061    0.8320 H   0  0  0  0  0  0  0  0  0  0  0  0
    6.3112   -4.3667   -0.4074 H   0  0  0  0  0  0  0  0  0  0  0  0
    6.5687   -5.8525   -1.9272 H   0  0  0  0  0  0  0  0  0  0  0  0
    7.3312   -6.9986   -0.9132 H   0  0  0  0  0  0  0  0  0  0  0  0
    7.5550   -6.3886   -3.7321 H   0  0  0  0  0  0  0  0  0  0  0  0
   10.0611   -5.0530   -2.5519 H   0  0  0  0  0  0  0  0  0  0  0  0
    8.5332   -4.2163   -2.8006 H   0  0  0  0  0  0  0  0  0  0  0  0
    9.3665   -4.8360   -4.1894 H   0  0  0  0  0  0  0  0  0  0  0  0
   10.0758   -7.1246   -3.6639 H   0  0  0  0  0  0  0  0  0  0  0  0
    9.8376   -7.7767   -1.6672 H   0  0  0  0  0  0  0  0  0  0  0  0
   11.2687   -8.9780   -4.5221 H   0  0  0  0  0  0  0  0  0  0  0  0
   12.4626   -9.8332   -7.1601 H   0  0  0  0  0  0  0  0  0  0  0  0
   11.2420  -11.7107   -8.9162 H   0  0  0  0  0  0  0  0  0  0  0  0
   12.9678  -13.4783   -7.1593 H   0  0  0  0  0  0  0  0  0  0  0  0
   11.3755  -13.7120   -7.9535 H   0  0  0  0  0  0  0  0  0  0  0  0
   12.5311  -15.5371   -8.5932 H   0  0  0  0  0  0  0  0  0  0  0  0
   14.0213  -14.8186   -8.8595 H   0  0  0  0  0  0  0  0  0  0  0  0
   12.7182  -14.5806  -10.0533 H   0  0  0  0  0  0  0  0  0  0  0  0
   15.3035  -13.9230  -10.2246 H   0  0  0  0  0  0  0  0  0  0  0  0
   15.1197  -13.1595   -8.5781 H   0  0  0  0  0  0  0  0  0  0  0  0
   16.4397  -12.7361   -9.6448 H   0  0  0  0  0  0  0  0  0  0  0  0
   16.3279  -11.1742  -10.9600 H   0  0  0  0  0  0  0  0  0  0  0  0
   14.9287  -10.2804  -11.4257 H   0  0  0  0  0  0  0  0  0  0  0  0
   13.2253  -13.1104  -12.8407 H   0  0  0  0  0  0  0  0  0  0  0  0
   14.7809  -13.9725  -13.0210 H   0  0  0  0  0  0  0  0  0  0  0  0
   13.7048  -13.7862  -14.4207 H   0  0  0  0  0  0  0  0  0  0  0  0
   13.6608  -11.9755  -15.5315 H   0  0  0  0  0  0  0  0  0  0  0  0
   15.0066   -9.4991  -15.9648 H   0  0  0  0  0  0  0  0  0  0  0  0
   12.1090  -10.1169  -15.7603 H   0  0  0  0  0  0  0  0  0  0  0  0
   13.0879  -10.4672  -17.0817 H   0  0  0  0  0  0  0  0  0  0  0  0
   13.0220   -8.8020  -16.5273 H   0  0  0  0  0  0  0  0  0  0  0  0
   15.2723   -9.2965  -13.5459 H   0  0  0  0  0  0  0  0  0  0  0  0
   13.5900   -9.6406  -13.3449 H   0  0  0  0  0  0  0  0  0  0  0  0
   15.0316   -7.2383  -14.5439 H   0  0  0  0  0  0  0  0  0  0  0  0
   13.8812   -7.2654  -13.2060 H   0  0  0  0  0  0  0  0  0  0  0  0
   13.3046   -7.4359  -14.8671 H   0  0  0  0  0  0  0  0  0  0  0  0
   16.5664  -12.2868  -17.9991 H   0  0  0  0  0  0  0  0  0  0  0  0
   17.2625  -10.2563  -18.5510 H   0  0  0  0  0  0  0  0  0  0  0  0
   16.7334   -9.7384  -15.6061 H   0  0  0  0  0  0  0  0  0  0  0  0
   18.0958   -7.6266  -17.2658 H   0  0  0  0  0  0  0  0  0  0  0  0
   17.6033   -7.6156  -15.5675 H   0  0  0  0  0  0  0  0  0  0  0  0
   16.3727   -7.5257  -16.8132 H   0  0  0  0  0  0  0  0  0  0  0  0
   19.3454   -9.9385  -17.0259 H   0  0  0  0  0  0  0  0  0  0  0  0
   18.5212  -11.2231  -16.1180 H   0  0  0  0  0  0  0  0  0  0  0  0
   19.0057   -9.7588  -15.2891 H   0  0  0  0  0  0  0  0  0  0  0  0
   16.8980   -8.2210  -19.5858 H   0  0  0  0  0  0  0  0  0  0  0  0
   15.9747   -6.7144  -19.4565 H   0  0  0  0  0  0  0  0  0  0  0  0
   15.6750   -7.8565  -20.8025 H   0  0  0  0  0  0  0  0  0  0  0  0
   12.8364   -8.5045  -18.4522 H   0  0  0  0  0  0  0  0  0  0  0  0
   11.8779   -7.8884  -20.7394 H   0  0  0  0  0  0  0  0  0  0  0  0
   13.4628   -8.1674  -21.4057 H   0  0  0  0  0  0  0  0  0  0  0  0
   13.3335  -10.5501  -20.7832 H   0  0  0  0  0  0  0  0  0  0  0  0
   10.4265  -10.1487  -19.8888 H   0  0  0  0  0  0  0  0  0  0  0  0
   11.7296  -10.2611  -18.7167 H   0  0  0  0  0  0  0  0  0  0  0  0
   11.4164  -11.6092  -19.7938 H   0  0  0  0  0  0  0  0  0  0  0  0
   10.7987   -9.7120  -22.2418 H   0  0  0  0  0  0  0  0  0  0  0  0
   11.6425  -11.2642  -22.3413 H   0  0  0  0  0  0  0  0  0  0  0  0
   12.4180   -9.8009  -22.9643 H   0  0  0  0  0  0  0  0  0  0  0  0
   12.1650   -4.9373  -18.4335 H   0  0  0  0  0  0  0  0  0  0  0  0
   11.7790   -7.4066  -16.9040 H   0  0  0  0  0  0  0  0  0  0  0  0
   10.8826   -4.5845  -16.2668 H   0  0  0  0  0  0  0  0  0  0  0  0
   12.3512   -5.3594  -15.7225 H   0  0  0  0  0  0  0  0  0  0  0  0
   10.8178   -6.0243  -15.2159 H   0  0  0  0  0  0  0  0  0  0  0  0
    8.1116   -7.4584  -17.8724 H   0  0  0  0  0  0  0  0  0  0  0  0
    6.9619   -6.1434  -16.7091 H   0  0  0  0  0  0  0  0  0  0  0  0
    9.2027   -4.3353  -17.4322 H   0  0  0  0  0  0  0  0  0  0  0  0
    7.9896   -3.7365  -16.2962 H   0  0  0  0  0  0  0  0  0  0  0  0
    7.5243   -4.3570  -17.8892 H   0  0  0  0  0  0  0  0  0  0  0  0
    5.6687   -6.9721  -15.5257 H   0  0  0  0  0  0  0  0  0  0  0  0
    5.3909   -6.5782  -13.8355 H   0  0  0  0  0  0  0  0  0  0  0  0
    5.7049   -8.2639  -14.3222 H   0  0  0  0  0  0  0  0  0  0  0  0
    7.2359   -8.4619  -12.7613 H   0  0  0  0  0  0  0  0  0  0  0  0
    9.5625   -8.0423  -11.8274 H   0  0  0  0  0  0  0  0  0  0  0  0
    9.7828   -7.1488  -13.3567 H   0  0  0  0  0  0  0  0  0  0  0  0
    9.4727  -10.0986  -13.1023 H   0  0  0  0  0  0  0  0  0  0  0  0
    9.8610   -8.3392  -15.5553 H   0  0  0  0  0  0  0  0  0  0  0  0
    8.3851   -9.2813  -15.2418 H   0  0  0  0  0  0  0  0  0  0  0  0
    9.9183  -10.0929  -15.5393 H   0  0  0  0  0  0  0  0  0  0  0  0
   11.5715   -7.8944  -13.3289 H   0  0  0  0  0  0  0  0  0  0  0  0
   11.8079   -9.3706  -14.1827 H   0  0  0  0  0  0  0  0  0  0  0  0
   11.6133   -9.3980  -12.4298 H   0  0  0  0  0  0  0  0  0  0  0  0
   10.2282   -5.7347  -12.4262 H   0  0  0  0  0  0  0  0  0  0  0  0
   10.0680   -6.1357  -10.7247 H   0  0  0  0  0  0  0  0  0  0  0  0
   10.1095   -4.4451  -11.3280 H   0  0  0  0  0  0  0  0  0  0  0  0
    8.1189   -3.5475  -11.1383 H   0  0  0  0  0  0  0  0  0  0  0  0
    5.6201   -5.0530  -10.4820 H   0  0  0  0  0  0  0  0  0  0  0  0
    5.9634   -3.9201  -11.7492 H   0  0  0  0  0  0  0  0  0  0  0  0
    6.1285   -3.2453   -8.7518 H   0  0  0  0  0  0  0  0  0  0  0  0
    6.2304   -1.4474  -11.2203 H   0  0  0  0  0  0  0  0  0  0  0  0
    7.5225   -1.7136  -10.0431 H   0  0  0  0  0  0  0  0  0  0  0  0
    6.0612   -0.8832   -9.5418 H   0  0  0  0  0  0  0  0  0  0  0  0
    3.8749   -2.8149  -10.7564 H   0  0  0  0  0  0  0  0  0  0  0  0
    3.9440   -2.1299   -9.1137 H   0  0  0  0  0  0  0  0  0  0  0  0
    3.8719   -3.8827   -9.3423 H   0  0  0  0  0  0  0  0  0  0  0  0
    6.2056   -5.4747   -8.5399 H   0  0  0  0  0  0  0  0  0  0  0  0
    6.7842   -5.3632   -6.9057 H   0  0  0  0  0  0  0  0  0  0  0  0
    6.8931   -6.9079   -7.8277 H   0  0  0  0  0  0  0  0  0  0  0  0
    9.6819   -6.9205   -8.5309 H   0  0  0  0  0  0  0  0  0  0  0  0
   11.4926   -5.8573   -7.1102 H   0  0  0  0  0  0  0  0  0  0  0  0
   11.5783   -4.5635   -9.6472 H   0  0  0  0  0  0  0  0  0  0  0  0
   11.7299   -6.3317   -9.3649 H   0  0  0  0  0  0  0  0  0  0  0  0
   12.8052   -5.2214   -8.5560 H   0  0  0  0  0  0  0  0  0  0  0  0
   10.5909   -3.0750   -7.5334 H   0  0  0  0  0  0  0  0  0  0  0  0
   11.6051   -3.8024   -6.3232 H   0  0  0  0  0  0  0  0  0  0  0  0
    9.8539   -4.0162   -6.2386 H   0  0  0  0  0  0  0  0  0  0  0  0
   12.5327   -6.5182   -5.6704 H   0  0  0  0  0  0  0  0  0  0  0  0
   11.8404   -6.9237   -4.1418 H   0  0  0  0  0  0  0  0  0  0  0  0
   11.1130   -5.6024   -5.0336 H   0  0  0  0  0  0  0  0  0  0  0  0
  1  2  1  0  0  0  0
  1 87  1  0  0  0  0
  1 88  1  0  0  0  0
  1 89  1  0  0  0  0
  2  3  1  0  0  0  0
  2 90  1  0  0  0  0
  2 91  1  0  0  0  0
  3  4  2  0  0  0  0
  3 92  1  0  0  0  0
  4  5  1  0  0  0  0
  4 93  1  0  0  0  0
  5  6  1  0  0  0  0
  5 94  1  0  0  0  0
  5 95  1  0  0  0  0
  6  7  1  0  0  0  0
  6  8  1  0  0  0  0
  6 96  1  6  0  0  0
  7 97  1  0  0  0  0
  7 98  1  0  0  0  0
  7 99  1  0  0  0  0
  8  9  1  0  0  0  0
  8 10  1  0  0  0  0
  8100  1  1  0  0  0
  9101  1  0  0  0  0
 10 11  1  0  0  0  0
 10 85  1  0  0  0  0
 10102  1  1  0  0  0
 11 12  2  0  0  0  0
 11 13  1  0  0  0  0
 13 14  1  0  0  0  0
 13103  1  0  0  0  0
 14 15  1  0  0  0  0
 14 17  1  0  0  0  0
 14104  1  1  0  0  0
 15 16  1  0  0  0  0
 15105  1  0  0  0  0
 15106  1  0  0  0  0
 16107  1  0  0  0  0
 16108  1  0  0  0  0
 16109  1  0  0  0  0
 17 18  2  0  0  0  0
 17 19  1  0  0  0  0
 19 20  1  0  0  0  0
 19 21  1  0  0  0  0
 20110  1  0  0  0  0
 20111  1  0  0  0  0
 20112  1  0  0  0  0
 21 22  1  0  0  0  0
 21113  1  0  0  0  0
 21114  1  0  0  0  0
 22 23  2  0  0  0  0
 22 24  1  0  0  0  0
 24 25  1  0  0  0  0
 24 26  1  0  0  0  0
 25115  1  0  0  0  0
 25116  1  0  0  0  0
 25117  1  0  0  0  0
 26 27  1  0  0  0  0
 26 31  1  0  0  0  0
 26118  1  6  0  0  0
 27 28  1  0  0  0  0
 27 29  1  0  0  0  0
 27119  1  6  0  0  0
 28120  1  0  0  0  0
 28121  1  0  0  0  0
 28122  1  0  0  0  0
 29 30  1  0  0  0  0
 29123  1  0  0  0  0
 29124  1  0  0  0  0
 30125  1  0  0  0  0
 30126  1  0  0  0  0
 30127  1  0  0  0  0
 31 32  2  0  0  0  0
 31 33  1  0  0  0  0
 33 34  1  0  0  0  0
 33128  1  0  0  0  0
 34 38  1  0  0  0  0
 34 35  1  0  0  0  0
 34129  1  6  0  0  0
 35 36  1  0  0  0  0
 35 37  1  0  0  0  0
 35130  1  0  0  0  0
 36131  1  0  0  0  0
 36132  1  0  0  0  0
 36133  1  0  0  0  0
 37134  1  0  0  0  0
 37135  1  0  0  0  0
 37136  1  0  0  0  0
 38 39  2  0  0  0  0
 38 40  1  0  0  0  0
 40 41  1  0  0  0  0
 40 42  1  0  0  0  0
 41137  1  0  0  0  0
 41138  1  0  0  0  0
 41139  1  0  0  0  0
 42 47  1  0  0  0  0
 42 43  1  0  0  0  0
 42140  1  1  0  0  0
 43 44  1  0  0  0  0
 43141  1  0  0  0  0
 43142  1  0  0  0  0
 44 45  1  0  0  0  0
 44 46  1  0  0  0  0
 44143  1  0  0  0  0
 45144  1  0  0  0  0
 45145  1  0  0  0  0
 45146  1  0  0  0  0
 46147  1  0  0  0  0
 46148  1  0  0  0  0
 46149  1  0  0  0  0
 47 48  2  0  0  0  0
 47 49  1  0  0  0  0
 49 50  1  0  0  0  0
 49150  1  0  0  0  0
 50 51  1  0  0  0  0
 50 52  1  0  0  0  0
 50151  1  1  0  0  0
 51152  1  0  0  0  0
 51153  1  0  0  0  0
 51154  1  0  0  0  0
 52 53  2  0  0  0  0
 52 54  1  0  0  0  0
 54 55  1  0  0  0  0
 54155  1  0  0  0  0
 55 57  1  0  0  0  0
 55 56  1  0  0  0  0
 55156  1  6  0  0  0
 56157  1  0  0  0  0
 56158  1  0  0  0  0
 56159  1  0  0  0  0
 57 58  2  0  0  0  0
 57 59  1  0  0  0  0
 59 60  1  0  0  0  0
 59 61  1  0  0  0  0
 60160  1  0  0  0  0
 60161  1  0  0  0  0
 60162  1  0  0  0  0
 61 62  1  0  0  0  0
 61 66  1  0  0  0  0
 61163  1  1  0  0  0
 62 63  1  0  0  0  0
 62164  1  0  0  0  0
 62165  1  0  0  0  0
 63 64  1  0  0  0  0
 63 65  1  0  0  0  0
 63166  1  0  0  0  0
 64167  1  0  0  0  0
 64168  1  0  0  0  0
 64169  1  0  0  0  0
 65170  1  0  0  0  0
 65171  1  0  0  0  0
 65172  1  0  0  0  0
 66 67  2  0  0  0  0
 66 68  1  0  0  0  0
 68 69  1  0  0  0  0
 68 70  1  0  0  0  0
 69173  1  0  0  0  0
 69174  1  0  0  0  0
 69175  1  0  0  0  0
 70 71  1  0  0  0  0
 70 75  1  0  0  0  0
 70176  1  6  0  0  0
 71 72  1  0  0  0  0
 71177  1  0  0  0  0
 71178  1  0  0  0  0
 72 73  1  0  0  0  0
 72 74  1  0  0  0  0
 72179  1  0  0  0  0
 73180  1  0  0  0  0
 73181  1  0  0  0  0
 73182  1  0  0  0  0
 74183  1  0  0  0  0
 74184  1  0  0  0  0
 74185  1  0  0  0  0
 75 76  2  0  0  0  0
 75 77  1  0  0  0  0
 77 78  1  0  0  0  0
 77 79  1  0  0  0  0
 78186  1  0  0  0  0
 78187  1  0  0  0  0
 78188  1  0  0  0  0
 79 80  1  0  0  0  0
 79 83  1  0  0  0  0
 79189  1  6  0  0  0
 80 81  1  0  0  0  0
 80 82  1  0  0  0  0
 80190  1  0  0  0  0
 81191  1  0  0  0  0
 81192  1  0  0  0  0
 81193  1  0  0  0  0
 82194  1  0  0  0  0
 82195  1  0  0  0  0
 82196  1  0  0  0  0
 83 84  2  0  0  0  0
 83 85  1  0  0  0  0
 85 86  1  0  0  0  0
 86197  1  0  0  0  0
 86198  1  0  0  0  0
 86199  1  0  0  0  0
M  END
>  <Energy>
926.16

$$$$