11493254
  -OEChem-03242010103D

 41 43  0     0  0  0  0  0  0999 V2000
   -3.1880    3.0617   -0.6846 O   0  0  0  0  0  0  0  0  0  0  0  0
   -5.2922   -0.9470    0.8280 O   0  0  0  0  0  0  0  0  0  0  0  0
    6.6694    1.7632    0.5478 O   0  0  0  0  0  0  0  0  0  0  0  0
   -0.5667   -0.9934   -0.2563 C   0  0  0  0  0  0  0  0  0  0  0  0
   -1.8263   -0.2906   -0.1429 C   0  0  0  0  0  0  0  0  0  0  0  0
    1.8485   -0.9850   -0.1837 C   0  0  0  0  0  0  0  0  0  0  0  0
    0.6340   -0.3076   -0.0729 C   0  0  0  0  0  0  0  0  0  0  0  0
    3.0944   -0.2749    0.0056 C   0  0  0  0  0  0  0  0  0  0  0  0
   -0.5531   -2.3569   -0.5509 C   0  0  0  0  0  0  0  0  0  0  0  0
    1.8617   -2.3486   -0.4781 C   0  0  0  0  0  0  0  0  0  0  0  0
   -2.9657   -0.9660    0.2938 C   0  0  0  0  0  0  0  0  0  0  0  0
   -1.9010    1.0628   -0.4719 C   0  0  0  0  0  0  0  0  0  0  0  0
    0.6611   -3.0345   -0.6616 C   0  0  0  0  0  0  0  0  0  0  0  0
   -3.1153    1.7409   -0.3643 C   0  0  0  0  0  0  0  0  0  0  0  0
   -4.1801   -0.2881    0.4017 C   0  0  0  0  0  0  0  0  0  0  0  0
   -4.2549    1.0653    0.0726 C   0  0  0  0  0  0  0  0  0  0  0  0
    4.2425   -0.6891   -0.6693 C   0  0  0  0  0  0  0  0  0  0  0  0
    3.1475    0.8243    0.8627 C   0  0  0  0  0  0  0  0  0  0  0  0
    5.4439   -0.0043   -0.4870 C   0  0  0  0  0  0  0  0  0  0  0  0
    4.3489    1.5093    1.0449 C   0  0  0  0  0  0  0  0  0  0  0  0
    5.4972    1.0950    0.3700 C   0  0  0  0  0  0  0  0  0  0  0  0
   -4.4606    3.6930   -0.5516 C   0  0  0  0  0  0  0  0  0  0  0  0
   -5.1450   -2.3296    1.1479 C   0  0  0  0  0  0  0  0  0  0  0  0
    0.6240    0.7533    0.1570 H   0  0  0  0  0  0  0  0  0  0  0  0
   -1.4590   -2.9274   -0.7361 H   0  0  0  0  0  0  0  0  0  0  0  0
    2.7806   -2.9245   -0.5454 H   0  0  0  0  0  0  0  0  0  0  0  0
   -2.8753   -2.0060    0.5834 H   0  0  0  0  0  0  0  0  0  0  0  0
   -1.0468    1.6188   -0.8492 H   0  0  0  0  0  0  0  0  0  0  0  0
    0.6718   -4.0959   -0.8920 H   0  0  0  0  0  0  0  0  0  0  0  0
   -5.2268    1.5364    0.1772 H   0  0  0  0  0  0  0  0  0  0  0  0
    4.2425   -1.5195   -1.3701 H   0  0  0  0  0  0  0  0  0  0  0  0
    2.2901    1.1639    1.4371 H   0  0  0  0  0  0  0  0  0  0  0  0
    6.3302   -0.3325   -1.0236 H   0  0  0  0  0  0  0  0  0  0  0  0
    4.3865    2.3603    1.7197 H   0  0  0  0  0  0  0  0  0  0  0  0
   -5.2001    3.2554   -1.2308 H   0  0  0  0  0  0  0  0  0  0  0  0
   -4.3346    4.7394   -0.8482 H   0  0  0  0  0  0  0  0  0  0  0  0
   -4.8021    3.6951    0.4891 H   0  0  0  0  0  0  0  0  0  0  0  0
   -4.4703   -2.4770    1.9981 H   0  0  0  0  0  0  0  0  0  0  0  0
   -4.8496   -2.9181    0.2725 H   0  0  0  0  0  0  0  0  0  0  0  0
   -6.1298   -2.6947    1.4577 H   0  0  0  0  0  0  0  0  0  0  0  0
    7.3580    1.3412    0.0058 H   0  0  0  0  0  0  0  0  0  0  0  0
  1 14  1  0  0  0  0
  1 22  1  0  0  0  0
  2 15  1  0  0  0  0
  2 23  1  0  0  0  0
  3 21  1  0  0  0  0
  3 41  1  0  0  0  0
  4  5  1  0  0  0  0
  4  7  1  0  0  0  0
  4  9  2  0  0  0  0
  5 11  2  0  0  0  0
  5 12  1  0  0  0  0
  6  7  2  0  0  0  0
  6  8  1  0  0  0  0
  6 10  1  0  0  0  0
  7 24  1  0  0  0  0
  8 17  2  0  0  0  0
  8 18  1  0  0  0  0
  9 13  1  0  0  0  0
  9 25  1  0  0  0  0
 10 13  2  0  0  0  0
 10 26  1  0  0  0  0
 11 15  1  0  0  0  0
 11 27  1  0  0  0  0
 12 14  2  0  0  0  0
 12 28  1  0  0  0  0
 13 29  1  0  0  0  0
 14 16  1  0  0  0  0
 15 16  2  0  0  0  0
 16 30  1  0  0  0  0
 17 19  1  0  0  0  0
 17 31  1  0  0  0  0
 18 20  2  0  0  0  0
 18 32  1  0  0  0  0
 19 21  2  0  0  0  0
 19 33  1  0  0  0  0
 20 21  1  0  0  0  0
 20 34  1  0  0  0  0
 22 35  1  0  0  0  0
 22 36  1  0  0  0  0
 22 37  1  0  0  0  0
 23 38  1  0  0  0  0
 23 39  1  0  0  0  0
 23 40  1  0  0  0  0
M  END
> <PUBCHEM_COMPOUND_CID>
11493254

> <PUBCHEM_CONFORMER_RMSD>
0.6

> <PUBCHEM_CONFORMER_DIVERSEORDER>
5
6
4
3
7
8
1
2

> <PUBCHEM_MMFF94_PARTIAL_CHARGES>
31
1 -0.36
10 -0.15
11 -0.15
12 -0.15
13 -0.15
14 0.08
15 0.08
16 -0.15
17 -0.15
18 -0.15
19 -0.15
2 -0.36
20 -0.15
21 0.08
22 0.28
23 0.28
24 0.15
25 0.15
26 0.15
27 0.15
28 0.15
29 0.15
3 -0.53
30 0.15
31 0.15
32 0.15
33 0.15
34 0.15
41 0.45
7 -0.15
9 -0.15

> <PUBCHEM_EFFECTIVE_ROTOR_COUNT>
4

> <PUBCHEM_PHARMACOPHORE_FEATURES>
6
1 1 acceptor
1 2 acceptor
1 3 donor
6 4 6 7 9 10 13 rings
6 5 11 12 14 15 16 rings
6 8 17 18 19 20 21 rings

> <PUBCHEM_HEAVY_ATOM_COUNT>
23

> <PUBCHEM_ATOM_DEF_STEREO_COUNT>
0

> <PUBCHEM_ATOM_UDEF_STEREO_COUNT>
0

> <PUBCHEM_BOND_DEF_STEREO_COUNT>
0

> <PUBCHEM_BOND_UDEF_STEREO_COUNT>
0

> <PUBCHEM_ISOTOPIC_ATOM_COUNT>
0

> <PUBCHEM_COMPONENT_COUNT>
1

> <PUBCHEM_CACTVS_TAUTO_COUNT>
2

> <PUBCHEM_CONFORMER_ID>
00AF5F8600000005

> <PUBCHEM_MMFF94_ENERGY>
98.5239

> <PUBCHEM_FEATURE_SELFOVERLAP>
30.446

> <PUBCHEM_SHAPE_FINGERPRINT>
10 15 18336825416078047496
10165383 225 18131074878080822179
10319926 262 18262789671430178226
10411042 1 17547284961888301190
10498660 4 18341332180574432496
10670039 82 18261126157803442404
11405975 8 18046345236787334619
11595378 159 17895181208282385800
12107183 9 17609765405888745434
12390115 104 18270694085843592177
12403259 118 18040719177374232684
12403259 415 18341899567302443070
12596602 18 17241040002658668400
12769317 202 18129933478032640424
12892183 10 18113616772389015866
12916748 109 18409169939447917938
12925494 130 18268708321137954097
12930653 34 18336830797387420839
13073987 5 18261387845844467402
13140716 1 17974572703870906379
13402501 40 18342177794899029056
13540713 4 18266189331508368231
13785724 45 17762613989825290618
14341114 328 16950289503080344820
1454969 45 18269273633475836231
14848178 96 18198336265170726248
15081414 286 18060145340804326888
15196674 1 18411136892487534932
1768 85 17844244240456004225
17980427 23 17748835115667378589
18608769 82 18269558406612844746
20642791 13 18334300838823181359
20645477 56 18200874084305150402
21033648 144 17560227163324568592
21033648 29 18272357685886710984
21279426 13 18199754652945973558
21315764 268 18410851097032590072
22224240 67 18343026635789277571
23227448 37 18200871893692501246
23559900 14 17979351954462813623
26918003 58 8358262531736106250
2747138 104 18189350107224318067
2838139 119 18272077336708129764
2916195 48 18343016718577291872
350125 39 18340209707766467112
469060 322 18337973250035088217
497634 4 16988839519206512447
5104073 3 18263084323070959115
6442390 28 18410577296978087550
7808743 9 18339918346481734520
9709674 26 18124035629306030071
9981440 41 18261396615756619251
9996256 80 18201718500424308534

> <PUBCHEM_SHAPE_MULTIPOLES>
455.72
13.75
3.4
0.92
7.87
1.04
0.11
7
2.9
-3.65
-0.6
-0.07
-0.04
2.57

> <PUBCHEM_SHAPE_SELFOVERLAP>
1002.161

> <PUBCHEM_SHAPE_VOLUME>
248.4

> <PUBCHEM_COORDINATE_TYPE>
2
5
10

$$$$