5388063
  -OEChem-03242010103D

 38 39  0     0  0  0  0  0  0999 V2000
   -4.7248   -2.2186   -0.2610 O   0  0  0  0  0  0  0  0  0  0  0  0
   -3.9457    2.4709    0.1724 O   0  0  0  0  0  0  0  0  0  0  0  0
    6.3095   -0.5753    0.2013 O   0  0  0  0  0  0  0  0  0  0  0  0
   -1.6226   -0.3353    0.0720 C   0  0  0  0  0  0  0  0  0  0  0  0
    2.2213    0.1019   -0.0317 C   0  0  0  0  0  0  0  0  0  0  0  0
   -2.0934    0.9651    0.1525 C   0  0  0  0  0  0  0  0  0  0  0  0
   -2.4879   -1.4084   -0.0661 C   0  0  0  0  0  0  0  0  0  0  0  0
   -0.1712   -0.5821    0.1355 C   0  0  0  0  0  0  0  0  0  0  0  0
   -3.8618   -1.1746   -0.1250 C   0  0  0  0  0  0  0  0  0  0  0  0
   -3.4673    1.1989    0.0934 C   0  0  0  0  0  0  0  0  0  0  0  0
    0.7888    0.3400   -0.1129 C   0  0  0  0  0  0  0  0  0  0  0  0
   -4.3515    0.1290   -0.0453 C   0  0  0  0  0  0  0  0  0  0  0  0
    2.7084   -0.9779    0.7046 C   0  0  0  0  0  0  0  0  0  0  0  0
    3.1080    0.9543   -0.6899 C   0  0  0  0  0  0  0  0  0  0  0  0
    4.9692   -0.3532    0.1246 C   0  0  0  0  0  0  0  0  0  0  0  0
    4.0824   -1.2054    0.7827 C   0  0  0  0  0  0  0  0  0  0  0  0
    4.4820    0.7266   -0.6117 C   0  0  0  0  0  0  0  0  0  0  0  0
   -6.1162   -1.9078   -0.3147 C   0  0  0  0  0  0  0  0  0  0  0  0
   -2.9865    3.5174    0.3147 C   0  0  0  0  0  0  0  0  0  0  0  0
    7.1597    0.3345   -0.4954 C   0  0  0  0  0  0  0  0  0  0  0  0
   -1.3911    1.7760    0.2920 H   0  0  0  0  0  0  0  0  0  0  0  0
   -2.1161   -2.4280   -0.1306 H   0  0  0  0  0  0  0  0  0  0  0  0
    0.0941   -1.6041    0.3927 H   0  0  0  0  0  0  0  0  0  0  0  0
    0.5229    1.3463   -0.4240 H   0  0  0  0  0  0  0  0  0  0  0  0
   -5.4075    0.3753   -0.0850 H   0  0  0  0  0  0  0  0  0  0  0  0
    2.0595   -1.6551    1.2520 H   0  0  0  0  0  0  0  0  0  0  0  0
    2.7463    1.8003   -1.2697 H   0  0  0  0  0  0  0  0  0  0  0  0
    4.4570   -2.0451    1.3619 H   0  0  0  0  0  0  0  0  0  0  0  0
    5.1142    1.4268   -1.1471 H   0  0  0  0  0  0  0  0  0  0  0  0
   -6.6548   -2.8549   -0.4239 H   0  0  0  0  0  0  0  0  0  0  0  0
   -6.3593   -1.2993   -1.1924 H   0  0  0  0  0  0  0  0  0  0  0  0
   -6.4626   -1.4493    0.6178 H   0  0  0  0  0  0  0  0  0  0  0  0
   -2.4366    3.4347    1.2583 H   0  0  0  0  0  0  0  0  0  0  0  0
   -3.5423    4.4601    0.3532 H   0  0  0  0  0  0  0  0  0  0  0  0
   -2.3211    3.5768   -0.5534 H   0  0  0  0  0  0  0  0  0  0  0  0
    7.0763    1.3504   -0.0946 H   0  0  0  0  0  0  0  0  0  0  0  0
    6.9869    0.2993   -1.5764 H   0  0  0  0  0  0  0  0  0  0  0  0
    8.1908    0.0077   -0.3259 H   0  0  0  0  0  0  0  0  0  0  0  0
  1  9  1  0  0  0  0
  1 18  1  0  0  0  0
  2 10  1  0  0  0  0
  2 19  1  0  0  0  0
  3 15  1  0  0  0  0
  3 20  1  0  0  0  0
  4  6  2  0  0  0  0
  4  7  1  0  0  0  0
  4  8  1  0  0  0  0
  5 11  1  0  0  0  0
  5 13  2  0  0  0  0
  5 14  1  0  0  0  0
  6 10  1  0  0  0  0
  6 21  1  0  0  0  0
  7  9  2  0  0  0  0
  7 22  1  0  0  0  0
  8 11  2  0  0  0  0
  8 23  1  0  0  0  0
  9 12  1  0  0  0  0
 10 12  2  0  0  0  0
 11 24  1  0  0  0  0
 12 25  1  0  0  0  0
 13 16  1  0  0  0  0
 13 26  1  0  0  0  0
 14 17  2  0  0  0  0
 14 27  1  0  0  0  0
 15 16  2  0  0  0  0
 15 17  1  0  0  0  0
 16 28  1  0  0  0  0
 17 29  1  0  0  0  0
 18 30  1  0  0  0  0
 18 31  1  0  0  0  0
 18 32  1  0  0  0  0
 19 33  1  0  0  0  0
 19 34  1  0  0  0  0
 19 35  1  0  0  0  0
 20 36  1  0  0  0  0
 20 37  1  0  0  0  0
 20 38  1  0  0  0  0
M  END
> <PUBCHEM_COMPOUND_CID>
5388063

> <PUBCHEM_CONFORMER_RMSD>
0.8

> <PUBCHEM_CONFORMER_DIVERSEORDER>
2
1
3

> <PUBCHEM_MMFF94_PARTIAL_CHARGES>
29
1 -0.36
10 0.08
11 -0.18
12 -0.15
13 -0.15
14 -0.15
15 0.08
16 -0.15
17 -0.15
18 0.28
19 0.28
2 -0.36
20 0.28
21 0.15
22 0.15
23 0.15
24 0.15
25 0.15
26 0.15
27 0.15
28 0.15
29 0.15
3 -0.36
4 0.03
5 0.03
6 -0.15
7 -0.15
8 -0.18
9 0.08

> <PUBCHEM_EFFECTIVE_ROTOR_COUNT>
5

> <PUBCHEM_PHARMACOPHORE_FEATURES>
5
1 1 acceptor
1 2 acceptor
1 3 acceptor
6 4 6 7 9 10 12 rings
6 5 13 14 15 16 17 rings

> <PUBCHEM_HEAVY_ATOM_COUNT>
20

> <PUBCHEM_ATOM_DEF_STEREO_COUNT>
0

> <PUBCHEM_ATOM_UDEF_STEREO_COUNT>
0

> <PUBCHEM_BOND_DEF_STEREO_COUNT>
1

> <PUBCHEM_BOND_UDEF_STEREO_COUNT>
0

> <PUBCHEM_ISOTOPIC_ATOM_COUNT>
0

> <PUBCHEM_COMPONENT_COUNT>
1

> <PUBCHEM_CACTVS_TAUTO_COUNT>
1

> <PUBCHEM_CONFORMER_ID>
0052371F00000002

> <PUBCHEM_MMFF94_ENERGY>
87.0414

> <PUBCHEM_FEATURE_SELFOVERLAP>
25.373

> <PUBCHEM_SHAPE_FINGERPRINT>
10411042 1 18268147755460346839
10595046 47 18407760344055632152
10912923 1 18040994012642408810
11045515 52 18041554849841562509
11056379 131 18413674604169311671
11315181 36 18187648028416103252
11524674 6 16056883567535493879
12091667 2 18335424569201846946
12107183 9 17758953719140290682
12166972 35 18334297608343734372
12236239 1 18335420154244485386
12403259 415 17632568362362995722
12788726 201 18408034114024973587
13073987 5 18409444765799553802
13167823 11 18408319982225654690
13288520 33 18413107295013975863
13583140 156 17560507435182597342
14251718 22 18413108377176838370
14251764 18 17967531290653441824
14508225 48 18339347670151543693
15250474 111 18261381235400072114
15778101 99 18270404875863039577
17834072 33 18334294288349266974
17844677 252 18412831304457405056
18681886 176 18412823621214164568
18927931 339 18341898506688471567
19427546 20 18334855005399788013
19433438 28 18130783486209098368
19489759 90 18341894086544371642
200 152 18335417993185098867
20612939 158 17241052106266665084
21033648 29 17059757949940511410
21033650 10 18194992689223529292
21065198 48 18261388919227725042
21236236 1 18411700976544515333
21267235 1 18409736191703916019
21315763 129 18412545418765611148
21315763 28 18410573994722522084
21426921 1 18412544289199657865
2297311 6 18273219711544822435
2306618 200 18130512959726556713
23081809 10 17967817129063775986
23402539 116 18410289225131440311
23557571 272 18201443566434356500
23559900 14 18191862538517145201
3004659 81 18114174280560473838
335352 9 18411694393066519733
34797466 226 17632024156296031652
3545911 37 18341614784953104944
4073 2 18040443200530803962
4214541 1 18409448063796412149
497634 4 18187362125618183327
5104073 3 18261671493932205544
542803 24 18411981352030580322
54446538 1 18408041836127874556
559249 180 18337668620710258066
573450 72 18335976484972769899
5969126 39 18201991158602722493
6327066 14 18046059355581081477
67856867 119 18262801886143204844
7495541 125 17917710261670359064
77779 3 18409167692889839314

> <PUBCHEM_SHAPE_MULTIPOLES>
393.98
16.08
2.41
0.74
14.22
1.9
0.01
-3.51
-1.55
-4.91
0.2
0.38
-0.02
-1.26

> <PUBCHEM_SHAPE_SELFOVERLAP>
835.895

> <PUBCHEM_SHAPE_VOLUME>
222.2

> <PUBCHEM_COORDINATE_TYPE>
2
5
10

$$$$