11644985
  -OEChem-03242010103D

 35 36  0     0  0  0  0  0  0999 V2000
   -5.4975    1.1045   -2.2752 Cl  0  0  0  0  0  0  0  0  0  0  0  0
    4.4073   -2.0373   -0.5305 O   0  0  0  0  0  0  0  0  0  0  0  0
    3.6164    2.5711    0.4301 O   0  0  0  0  0  0  0  0  0  0  0  0
   -2.5422   -1.0622    2.3160 O   0  0  0  0  0  0  0  0  0  0  0  0
    1.2770   -0.1787   -0.1634 C   0  0  0  0  0  0  0  0  0  0  0  0
    1.7647    1.0995    0.1081 C   0  0  0  0  0  0  0  0  0  0  0  0
    2.1649   -1.2328   -0.3778 C   0  0  0  0  0  0  0  0  0  0  0  0
   -2.5562    0.1611    0.2479 C   0  0  0  0  0  0  0  0  0  0  0  0
   -0.1573   -0.4125   -0.2227 C   0  0  0  0  0  0  0  0  0  0  0  0
    3.5406   -1.0088   -0.3209 C   0  0  0  0  0  0  0  0  0  0  0  0
    3.1403    1.3238    0.1651 C   0  0  0  0  0  0  0  0  0  0  0  0
   -1.1021    0.3881    0.3250 C   0  0  0  0  0  0  0  0  0  0  0  0
    4.0283    0.2697   -0.0495 C   0  0  0  0  0  0  0  0  0  0  0  0
   -3.2092   -0.5508    1.2422 C   0  0  0  0  0  0  0  0  0  0  0  0
   -3.2468    0.6757   -0.8392 C   0  0  0  0  0  0  0  0  0  0  0  0
   -4.5859   -0.7533    1.1478 C   0  0  0  0  0  0  0  0  0  0  0  0
   -4.6237    0.4733   -0.9335 C   0  0  0  0  0  0  0  0  0  0  0  0
   -5.2932   -0.2415    0.0600 C   0  0  0  0  0  0  0  0  0  0  0  0
    3.8410   -3.3181   -0.8032 C   0  0  0  0  0  0  0  0  0  0  0  0
    5.0337    2.7294    0.4736 C   0  0  0  0  0  0  0  0  0  0  0  0
    1.1074    1.9511    0.2604 H   0  0  0  0  0  0  0  0  0  0  0  0
    1.7367   -2.2089   -0.5835 H   0  0  0  0  0  0  0  0  0  0  0  0
   -0.4770   -1.3054   -0.7564 H   0  0  0  0  0  0  0  0  0  0  0  0
   -0.8410    1.2775    0.8916 H   0  0  0  0  0  0  0  0  0  0  0  0
    5.1073    0.3799   -0.0186 H   0  0  0  0  0  0  0  0  0  0  0  0
   -2.7243    1.2336   -1.6134 H   0  0  0  0  0  0  0  0  0  0  0  0
   -5.1138   -1.3090    1.9181 H   0  0  0  0  0  0  0  0  0  0  0  0
   -6.3659   -0.4071   -0.0003 H   0  0  0  0  0  0  0  0  0  0  0  0
    3.2670   -3.3146   -1.7360 H   0  0  0  0  0  0  0  0  0  0  0  0
    3.2551   -3.6884    0.0449 H   0  0  0  0  0  0  0  0  0  0  0  0
    4.6733   -4.0155   -0.9440 H   0  0  0  0  0  0  0  0  0  0  0  0
    5.2343    3.7825    0.6960 H   0  0  0  0  0  0  0  0  0  0  0  0
    5.4927    2.5151   -0.4975 H   0  0  0  0  0  0  0  0  0  0  0  0
    5.4797    2.1417    1.2832 H   0  0  0  0  0  0  0  0  0  0  0  0
   -1.6001   -0.8324    2.2788 H   0  0  0  0  0  0  0  0  0  0  0  0
  1 17  1  0  0  0  0
  2 10  1  0  0  0  0
  2 19  1  0  0  0  0
  3 11  1  0  0  0  0
  3 20  1  0  0  0  0
  4 14  1  0  0  0  0
  4 35  1  0  0  0  0
  5  6  2  0  0  0  0
  5  7  1  0  0  0  0
  5  9  1  0  0  0  0
  6 11  1  0  0  0  0
  6 21  1  0  0  0  0
  7 10  2  0  0  0  0
  7 22  1  0  0  0  0
  8 12  1  0  0  0  0
  8 14  2  0  0  0  0
  8 15  1  0  0  0  0
  9 12  2  0  0  0  0
  9 23  1  0  0  0  0
 10 13  1  0  0  0  0
 11 13  2  0  0  0  0
 12 24  1  0  0  0  0
 13 25  1  0  0  0  0
 14 16  1  0  0  0  0
 15 17  2  0  0  0  0
 15 26  1  0  0  0  0
 16 18  2  0  0  0  0
 16 27  1  0  0  0  0
 17 18  1  0  0  0  0
 18 28  1  0  0  0  0
 19 29  1  0  0  0  0
 19 30  1  0  0  0  0
 19 31  1  0  0  0  0
 20 32  1  0  0  0  0
 20 33  1  0  0  0  0
 20 34  1  0  0  0  0
M  END
> <PUBCHEM_COMPOUND_CID>
11644985

> <PUBCHEM_CONFORMER_RMSD>
0.6

> <PUBCHEM_CONFORMER_DIVERSEORDER>
6
12
16
9
11
3
17
4
10
13
5
14
18
8
1
15
7
2

> <PUBCHEM_MMFF94_PARTIAL_CHARGES>
29
1 -0.18
10 0.08
11 0.08
12 -0.18
13 -0.15
14 0.08
15 -0.15
16 -0.15
17 0.18
18 -0.15
19 0.28
2 -0.36
20 0.28
21 0.15
22 0.15
23 0.15
24 0.15
25 0.15
26 0.15
27 0.15
28 0.15
3 -0.36
35 0.45
4 -0.53
5 0.03
6 -0.15
7 -0.15
8 0.03
9 -0.18

> <PUBCHEM_EFFECTIVE_ROTOR_COUNT>
4

> <PUBCHEM_PHARMACOPHORE_FEATURES>
5
1 2 acceptor
1 3 acceptor
1 4 donor
6 5 6 7 10 11 13 rings
6 8 14 15 16 17 18 rings

> <PUBCHEM_HEAVY_ATOM_COUNT>
20

> <PUBCHEM_ATOM_DEF_STEREO_COUNT>
0

> <PUBCHEM_ATOM_UDEF_STEREO_COUNT>
0

> <PUBCHEM_BOND_DEF_STEREO_COUNT>
1

> <PUBCHEM_BOND_UDEF_STEREO_COUNT>
0

> <PUBCHEM_ISOTOPIC_ATOM_COUNT>
0

> <PUBCHEM_COMPONENT_COUNT>
1

> <PUBCHEM_CACTVS_TAUTO_COUNT>
3

> <PUBCHEM_CONFORMER_ID>
00B1B03900000006

> <PUBCHEM_MMFF94_ENERGY>
77.6175

> <PUBCHEM_FEATURE_SELFOVERLAP>
25.371

> <PUBCHEM_SHAPE_FINGERPRINT>
10912923 1 17275106137151717931
11370993 144 18337966610067973481
11796584 16 17095808711881832130
12107183 9 17697616393400695953
12236239 1 17060341820405382625
12403259 415 18113621170909806205
12616971 3 17632581526659374999
12730499 353 18339651139291299050
13533116 47 18130790057593613115
13544592 145 18041283175267986339
13675066 3 18114466742284982803
13760787 5 17988925569914597597
13911852 28 17911241611912170166
13955234 65 18343584053861153842
14573314 32 17968097491011064999
15242439 84 18041280971997151951
15375358 24 18114178670312410697
15961568 22 17023473069982122940
16079462 125 18114451336311554605
17349148 13 17203327775869964415
17844677 252 18342463603798486445
1813 80 17558566716294017222
18186145 218 18040439858681873641
18222031 100 17987235535034185678
18681886 176 14692288516913722280
19489759 90 17313377963898675009
200 152 17988641866071328475
20157964 124 18341324556811972221
20369508 70 18335700482381006234
20645477 70 18412263913296809614
21033648 29 17967249802027185197
21033650 10 16371294303001816796
21065201 7 17312825978595801571
22393880 68 18040433261649582475
22943178 12 18187372046729061523
23557571 272 17676491656985289845
23559900 14 17894916187299239702
239999 70 18113621205401361592
268830 7 18272381845161731393
312423 11 17988097598809108456
34797466 226 17603881021636187559
3545911 37 18337958994800962832
4015057 19 18342171185513968825
5104073 3 18334298647672644401
5281201 14 18335144167492395244
5283173 99 17968087595718119213
573450 72 16200432425555263827
6025842 7 18343582958486172742
90127 26 18260830380290034557
9709674 26 18114752628399140419

> <PUBCHEM_SHAPE_MULTIPOLES>
395.85
13.49
2.47
1.41
5.68
0.4
0.03
-1.88
-2.59
-5.81
-0.29
2.57
0.13
2.89

> <PUBCHEM_SHAPE_SELFOVERLAP>
836.188

> <PUBCHEM_SHAPE_VOLUME>
224.3

> <PUBCHEM_COORDINATE_TYPE>
2
5
10

$$$$