
 OpenBabel04072018063D

158160  0  0  1  0  0  0  0  0999 V2000
    2.6103    2.6502    2.8340 C   0  0  0  0  0  0  0  0  0  0  0  0
    2.6254    2.0324    1.4423 C   0  0  0  0  0  0  0  0  0  0  0  0
    1.4093    2.2969    0.4375 C   0  0  1  0  0  0  0  0  0  0  0  0
    2.1042    2.4284   -0.9310 C   0  0  0  0  0  0  0  0  0  0  0  0
    0.2772    1.1686    0.1970 C   0  0  2  0  0  0  0  0  0  0  0  0
   -1.3519    1.8030    0.6412 N   0  0  0  0  0  0  0  0  0  0  0  0
   -2.7484    1.2588    0.3467 C   0  0  0  0  0  0  0  0  0  0  0  0
   -3.1151    1.1687   -0.8359 O   0  0  0  0  0  0  0  0  0  0  0  0
   -3.8108    0.4732    1.5977 C   0  0  2  0  0  0  0  0  0  0  0  0
   -4.9581   -0.4183    1.0038 C   0  0  0  0  0  0  0  0  0  0  0  0
   -6.0069    0.6066    0.5976 C   0  0  0  0  0  0  0  0  0  0  0  0
   -5.7468    1.7729    1.5655 C   0  0  0  0  0  0  0  0  0  0  0  0
   -4.6515    1.3237    2.4359 N   0  0  0  0  0  0  0  0  0  0  0  0
   -4.9929    1.1753    3.7838 C   0  0  0  0  0  0  0  0  0  0  0  0
   -5.7507    2.0422    4.2641 O   0  0  0  0  0  0  0  0  0  0  0  0
   -4.6804   -0.0574    4.7652 C   0  0  1  0  0  0  0  0  0  0  0  0
   -5.8708   -1.0383    4.8564 C   0  0  0  0  0  0  0  0  0  0  0  0
   -3.3319   -0.6698    5.0203 N   0  0  0  0  0  0  0  0  0  0  0  0
   -2.4127    0.2448    5.6931 C   0  0  0  0  0  0  0  0  0  0  0  0
   -3.0470   -2.0013    4.6210 C   0  0  0  0  0  0  0  0  0  0  0  0
   -3.8581   -2.6160    3.9575 O   0  0  0  0  0  0  0  0  0  0  0  0
   -1.6631   -2.7395    5.0547 C   0  0  2  0  0  0  0  0  0  0  0  0
   -0.7839   -3.2970    3.9018 C   0  0  0  0  0  0  0  0  0  0  0  0
   -0.9805   -2.4796    2.7179 C   0  0  0  0  0  0  0  0  0  0  0  0
   -0.8746   -1.1550    2.9486 C   0  0  0  0  0  0  0  0  0  0  0  0
   -1.1704   -0.4005    1.8984 C   0  0  0  0  0  0  0  0  0  0  0  0
   -1.4016   -0.9373    0.5913 C   0  0  0  0  0  0  0  0  0  0  0  0
   -1.4515   -2.2526    0.3542 C   0  0  0  0  0  0  0  0  0  0  0  0
   -1.2913   -3.0137    1.4630 C   0  0  0  0  0  0  0  0  0  0  0  0
   -1.7928   -3.8121    6.0277 N   0  0  0  0  0  0  0  0  0  0  0  0
   -1.9627   -5.1334    5.6784 C   0  0  0  0  0  0  0  0  0  0  0  0
   -1.3544   -5.9396    6.3822 O   0  0  0  0  0  0  0  0  0  0  0  0
   -2.8946   -5.5536    4.4773 C   0  0  2  0  0  0  0  0  0  0  0  0
   -4.3088   -5.9324    4.9770 C   0  0  0  0  0  0  0  0  0  0  0  0
   -5.2513   -6.2171    3.8005 C   0  0  0  0  0  0  0  0  0  0  0  0
   -4.9561   -4.8609    5.8623 C   0  0  0  0  0  0  0  0  0  0  0  0
   -2.2768   -6.6546    3.6226 N   0  0  0  0  0  0  0  0  0  0  0  0
   -2.0451   -7.9087    4.3110 C   0  0  0  0  0  0  0  0  0  0  0  0
   -2.3078   -6.4865    2.2435 C   0  0  0  0  0  0  0  0  0  0  0  0
   -2.7555   -5.4115    1.8348 O   0  0  0  0  0  0  0  0  0  0  0  0
   -1.8605   -7.4407    1.0850 C   0  0  1  0  0  0  0  0  0  0  0  0
   -1.4481   -8.8799    1.4243 C   0  0  1  0  0  0  0  0  0  0  0  0
   -2.6684   -9.7481    1.7514 C   0  0  0  0  0  0  0  0  0  0  0  0
   -0.6018   -9.5459    0.3172 C   0  0  0  0  0  0  0  0  0  0  0  0
   -0.0214  -10.8814    0.7834 C   0  0  0  0  0  0  0  0  0  0  0  0
   -2.9815   -7.4836    0.1221 O   0  0  0  0  0  0  0  0  0  0  0  0
   -2.9567   -6.9660   -1.1417 C   0  0  0  0  0  0  0  0  0  0  0  0
   -3.2726   -7.6785   -2.0946 O   0  0  0  0  0  0  0  0  0  0  0  0
   -2.7188   -5.4421   -1.3104 C   0  0  2  0  0  0  0  0  0  0  0  0
   -4.0653   -4.5972   -1.2585 C   0  0  0  0  0  0  0  0  0  0  0  0
   -5.1795   -5.0420   -2.2140 C   0  0  0  0  0  0  0  0  0  0  0  0
   -4.6830   -4.5525    0.1459 C   0  0  0  0  0  0  0  0  0  0  0  0
   -3.7913   -3.2278   -1.6295 O   0  0  0  0  0  0  0  0  0  0  0  0
   -1.8276   -5.1391   -2.4983 N   0  0  0  0  0  0  0  0  0  0  0  0
   -2.4132   -4.8122   -3.7902 C   0  0  0  0  0  0  0  0  0  0  0  0
   -0.4913   -5.5105   -2.4133 C   0  0  0  0  0  0  0  0  0  0  0  0
   -0.1528   -6.4414   -1.6756 O   0  0  0  0  0  0  0  0  0  0  0  0
    0.5587   -4.6619   -3.1985 C   0  0  2  0  0  0  0  0  0  0  0  0
    1.8936   -5.3794   -3.4530 C   0  0  0  0  0  0  0  0  0  0  0  0
    1.7120   -6.7528   -4.1738 C   0  0  0  0  0  0  0  0  0  0  0  0
    1.0594   -6.6546   -5.5602 C   0  0  0  0  0  0  0  0  0  0  0  0
    3.0445   -7.4904   -4.3065 C   0  0  0  0  0  0  0  0  0  0  0  0
    0.6261   -3.2366   -2.7765 N   0  0  0  0  0  0  0  0  0  0  0  0
    1.0645   -2.3397   -1.8791 C   0  0  0  0  0  0  0  0  0  0  0  0
    0.7411   -1.1906   -2.2472 O   0  0  0  0  0  0  0  0  0  0  0  0
    1.9664   -2.4629   -0.6079 C   0  0  2  0  0  0  0  0  0  0  0  0
    1.8011   -3.5141    0.5543 C   0  0  0  0  0  0  0  0  0  0  0  0
    3.1101   -4.1656    1.0540 C   0  0  0  0  0  0  0  0  0  0  0  0
    0.8957   -4.7003    0.2872 C   0  0  0  0  0  0  0  0  0  0  0  0
    2.0973   -0.9814   -0.0773 N   0  0  0  0  0  0  0  0  0  0  0  0
    1.1918   -0.2797    0.7243 C   0  0  0  0  0  0  0  0  0  0  0  0
    1.4114   -0.4803    1.9349 O   0  0  0  0  0  0  0  0  0  0  0  0
    2.9844    1.9245    3.5716 H   0  0  0  0  0  0  0  0  0  0  0  0
    1.6282    2.9908    3.1578 H   0  0  0  0  0  0  0  0  0  0  0  0
    3.3167    3.4892    2.8675 H   0  0  0  0  0  0  0  0  0  0  0  0
    2.8817    0.9858    1.5763 H   0  0  0  0  0  0  0  0  0  0  0  0
    3.5547    2.3887    0.9778 H   0  0  0  0  0  0  0  0  0  0  0  0
    0.9343    3.2480    0.6997 H   0  0  0  0  0  0  0  0  0  0  0  0
    2.6205    1.4916   -1.1791 H   0  0  0  0  0  0  0  0  0  0  0  0
    2.8540    3.2240   -0.9203 H   0  0  0  0  0  0  0  0  0  0  0  0
    1.3870    2.6408   -1.7258 H   0  0  0  0  0  0  0  0  0  0  0  0
    0.1197    1.0145   -0.8775 H   0  0  0  0  0  0  0  0  0  0  0  0
   -1.3318    2.3592    1.4850 H   0  0  0  0  0  0  0  0  0  0  0  0
   -3.2860   -0.1938    2.2621 H   0  0  0  0  0  0  0  0  0  0  0  0
   -5.4159   -1.0335    1.8026 H   0  0  0  0  0  0  0  0  0  0  0  0
   -4.6933   -1.1181    0.2104 H   0  0  0  0  0  0  0  0  0  0  0  0
   -7.0318    0.2189    0.6776 H   0  0  0  0  0  0  0  0  0  0  0  0
   -5.8548    0.9079   -0.4428 H   0  0  0  0  0  0  0  0  0  0  0  0
   -6.6588    2.0349    2.1094 H   0  0  0  0  0  0  0  0  0  0  0  0
   -5.3913    2.6412    1.0065 H   0  0  0  0  0  0  0  0  0  0  0  0
   -4.8255    0.4624    5.7313 H   0  0  0  0  0  0  0  0  0  0  0  0
   -5.9724   -1.6752    3.9763 H   0  0  0  0  0  0  0  0  0  0  0  0
   -6.8205   -0.5024    4.9652 H   0  0  0  0  0  0  0  0  0  0  0  0
   -5.7701   -1.6846    5.7401 H   0  0  0  0  0  0  0  0  0  0  0  0
   -2.9243    0.7474    6.5226 H   0  0  0  0  0  0  0  0  0  0  0  0
   -2.1063    1.0071    4.9700 H   0  0  0  0  0  0  0  0  0  0  0  0
   -1.5319   -0.2358    6.1079 H   0  0  0  0  0  0  0  0  0  0  0  0
   -1.0428   -1.9974    5.5609 H   0  0  0  0  0  0  0  0  0  0  0  0
    0.2798   -3.2854    4.1683 H   0  0  0  0  0  0  0  0  0  0  0  0
   -0.9838   -4.3189    3.6034 H   0  0  0  0  0  0  0  0  0  0  0  0
   -0.5537   -0.6859    3.8699 H   0  0  0  0  0  0  0  0  0  0  0  0
   -1.0724    0.6290    2.2118 H   0  0  0  0  0  0  0  0  0  0  0  0
   -1.4435   -0.3617   -0.3309 H   0  0  0  0  0  0  0  0  0  0  0  0
   -1.5421   -2.6127   -0.6611 H   0  0  0  0  0  0  0  0  0  0  0  0
   -1.3134   -4.0692    1.3237 H   0  0  0  0  0  0  0  0  0  0  0  0
   -1.0912   -3.7683    6.7585 H   0  0  0  0  0  0  0  0  0  0  0  0
   -3.0239   -4.6833    3.8419 H   0  0  0  0  0  0  0  0  0  0  0  0
   -4.2228   -6.8404    5.5825 H   0  0  0  0  0  0  0  0  0  0  0  0
   -5.3564   -5.3365    3.1554 H   0  0  0  0  0  0  0  0  0  0  0  0
   -6.2467   -6.4885    4.1633 H   0  0  0  0  0  0  0  0  0  0  0  0
   -4.8916   -7.0449    3.1831 H   0  0  0  0  0  0  0  0  0  0  0  0
   -5.3686   -4.0419    5.2678 H   0  0  0  0  0  0  0  0  0  0  0  0
   -4.2686   -4.4370    6.5974 H   0  0  0  0  0  0  0  0  0  0  0  0
   -5.7871   -5.2993    6.4226 H   0  0  0  0  0  0  0  0  0  0  0  0
   -2.0665   -7.7902    5.3920 H   0  0  0  0  0  0  0  0  0  0  0  0
   -1.0673   -8.3076    4.0617 H   0  0  0  0  0  0  0  0  0  0  0  0
   -2.8537   -8.5946    4.0690 H   0  0  0  0  0  0  0  0  0  0  0  0
   -1.0108   -6.9457    0.6028 H   0  0  0  0  0  0  0  0  0  0  0  0
   -0.7733   -8.8374    2.2773 H   0  0  0  0  0  0  0  0  0  0  0  0
   -3.0473  -10.2669    0.8660 H   0  0  0  0  0  0  0  0  0  0  0  0
   -3.4985   -9.1580    2.1508 H   0  0  0  0  0  0  0  0  0  0  0  0
   -2.4049  -10.5010    2.5016 H   0  0  0  0  0  0  0  0  0  0  0  0
    0.2343   -8.8895    0.0467 H   0  0  0  0  0  0  0  0  0  0  0  0
   -1.1973   -9.7000   -0.5892 H   0  0  0  0  0  0  0  0  0  0  0  0
    0.5730  -10.7521    1.6951 H   0  0  0  0  0  0  0  0  0  0  0  0
    0.6299  -11.3076    0.0151 H   0  0  0  0  0  0  0  0  0  0  0  0
   -0.8094  -11.6108    0.9955 H   0  0  0  0  0  0  0  0  0  0  0  0
   -2.0975   -5.1286   -0.4735 H   0  0  0  0  0  0  0  0  0  0  0  0
   -6.1130   -4.5157   -1.9736 H   0  0  0  0  0  0  0  0  0  0  0  0
   -5.3828   -6.1123   -2.1567 H   0  0  0  0  0  0  0  0  0  0  0  0
   -4.9857   -4.7536   -3.2487 H   0  0  0  0  0  0  0  0  0  0  0  0
   -5.6408   -4.0214    0.1488 H   0  0  0  0  0  0  0  0  0  0  0  0
   -4.0635   -3.9650    0.8279 H   0  0  0  0  0  0  0  0  0  0  0  0
   -4.8560   -5.5543    0.5473 H   0  0  0  0  0  0  0  0  0  0  0  0
   -3.6088   -2.7208   -0.8200 H   0  0  0  0  0  0  0  0  0  0  0  0
   -3.2367   -5.4954   -3.9981 H   0  0  0  0  0  0  0  0  0  0  0  0
   -1.7124   -4.9561   -4.6128 H   0  0  0  0  0  0  0  0  0  0  0  0
   -2.7379   -3.7701   -3.7973 H   0  0  0  0  0  0  0  0  0  0  0  0
    0.1511   -4.5376   -4.2036 H   0  0  0  0  0  0  0  0  0  0  0  0
    2.5345   -4.7391   -4.0742 H   0  0  0  0  0  0  0  0  0  0  0  0
    2.4224   -5.5260   -2.5051 H   0  0  0  0  0  0  0  0  0  0  0  0
    1.0668   -7.3896   -3.5594 H   0  0  0  0  0  0  0  0  0  0  0  0
    1.6815   -6.0844   -6.2579 H   0  0  0  0  0  0  0  0  0  0  0  0
    0.0724   -6.1882   -5.5247 H   0  0  0  0  0  0  0  0  0  0  0  0
    0.9109   -7.6549   -5.9843 H   0  0  0  0  0  0  0  0  0  0  0  0
    3.6859   -7.0285   -5.0639 H   0  0  0  0  0  0  0  0  0  0  0  0
    2.8694   -8.5309   -4.6058 H   0  0  0  0  0  0  0  0  0  0  0  0
    3.5838   -7.5065   -3.3552 H   0  0  0  0  0  0  0  0  0  0  0  0
    0.1358   -2.6592   -3.4532 H   0  0  0  0  0  0  0  0  0  0  0  0
    2.9666   -2.6492   -1.0249 H   0  0  0  0  0  0  0  0  0  0  0  0
    1.4090   -2.9844    1.4246 H   0  0  0  0  0  0  0  0  0  0  0  0
    3.4290   -4.9915    0.4037 H   0  0  0  0  0  0  0  0  0  0  0  0
    2.9399   -4.6143    2.0454 H   0  0  0  0  0  0  0  0  0  0  0  0
    3.9326   -3.4576    1.1427 H   0  0  0  0  0  0  0  0  0  0  0  0
    1.4099   -5.5179   -0.2207 H   0  0  0  0  0  0  0  0  0  0  0  0
    0.0392   -4.3994   -0.3005 H   0  0  0  0  0  0  0  0  0  0  0  0
    0.5299   -5.1274    1.2312 H   0  0  0  0  0  0  0  0  0  0  0  0
    2.9006   -1.0544    0.5347 H   0  0  0  0  0  0  0  0  0  0  0  0
  1  2  1  0  0  0  0
  1 73  1  0  0  0  0
  1 74  1  0  0  0  0
  1 75  1  0  0  0  0
  2 76  1  0  0  0  0
  2 77  1  0  0  0  0
  3  4  1  0  0  0  0
  3  2  1  0  0  0  0
  3 78  1  1  0  0  0
  4 79  1  0  0  0  0
  4 80  1  0  0  0  0
  4 81  1  0  0  0  0
  5  6  1  0  0  0  0
  5 71  1  0  0  0  0
  5  3  1  0  0  0  0
  5 82  1  6  0  0  0
  6  7  1  0  0  0  0
  6 83  1  0  0  0  0
  7  8  2  0  0  0  0
  7  9  1  0  0  0  0
  9 10  1  0  0  0  0
  9 13  1  0  0  0  0
  9 84  1  1  0  0  0
 10 11  1  0  0  0  0
 10 85  1  0  0  0  0
 10 86  1  0  0  0  0
 11 12  1  0  0  0  0
 11 87  1  0  0  0  0
 11 88  1  0  0  0  0
 12 13  1  0  0  0  0
 12 89  1  0  0  0  0
 12 90  1  0  0  0  0
 13 14  1  0  0  0  0
 14 15  2  0  0  0  0
 14 16  1  0  0  0  0
 16 17  1  0  0  0  0
 16 18  1  0  0  0  0
 16 91  1  1  0  0  0
 17 92  1  0  0  0  0
 17 93  1  0  0  0  0
 17 94  1  0  0  0  0
 18 19  1  0  0  0  0
 18 20  1  0  0  0  0
 19 95  1  0  0  0  0
 19 96  1  0  0  0  0
 19 97  1  0  0  0  0
 20 21  2  0  0  0  0
 20 22  1  0  0  0  0
 22 30  1  0  0  0  0
 22 23  1  0  0  0  0
 22 98  1  1  0  0  0
 23 24  1  0  0  0  0
 23 99  1  0  0  0  0
 23100  1  0  0  0  0
 24 25  1  0  0  0  0
 24 29  2  0  0  0  0
 25 26  2  0  0  0  0
 25101  1  0  0  0  0
 26 27  1  0  0  0  0
 26102  1  0  0  0  0
 27 28  2  0  0  0  0
 27103  1  0  0  0  0
 28 29  1  0  0  0  0
 28104  1  0  0  0  0
 29105  1  0  0  0  0
 30 31  1  0  0  0  0
 30106  1  0  0  0  0
 31 32  2  0  0  0  0
 31 33  1  0  0  0  0
 33 37  1  0  0  0  0
 33 34  1  0  0  0  0
 33107  1  6  0  0  0
 34 35  1  0  0  0  0
 34 36  1  0  0  0  0
 34108  1  0  0  0  0
 35109  1  0  0  0  0
 35110  1  0  0  0  0
 35111  1  0  0  0  0
 36112  1  0  0  0  0
 36113  1  0  0  0  0
 36114  1  0  0  0  0
 37 38  1  0  0  0  0
 37 39  1  0  0  0  0
 38115  1  0  0  0  0
 38116  1  0  0  0  0
 38117  1  0  0  0  0
 39 40  2  0  0  0  0
 39 41  1  0  0  0  0
 41 42  1  0  0  0  0
 41 46  1  0  0  0  0
 41118  1  6  0  0  0
 42 43  1  0  0  0  0
 42 44  1  0  0  0  0
 42119  1  1  0  0  0
 43120  1  0  0  0  0
 43121  1  0  0  0  0
 43122  1  0  0  0  0
 44 45  1  0  0  0  0
 44123  1  0  0  0  0
 44124  1  0  0  0  0
 45125  1  0  0  0  0
 45126  1  0  0  0  0
 45127  1  0  0  0  0
 46 47  1  0  0  0  0
 47 48  2  0  0  0  0
 47 49  1  0  0  0  0
 49 54  1  0  0  0  0
 49 50  1  0  0  0  0
 49128  1  1  0  0  0
 50 51  1  0  0  0  0
 50 52  1  0  0  0  0
 50 53  1  0  0  0  0
 51129  1  0  0  0  0
 51130  1  0  0  0  0
 51131  1  0  0  0  0
 52132  1  0  0  0  0
 52133  1  0  0  0  0
 52134  1  0  0  0  0
 53135  1  0  0  0  0
 54 55  1  0  0  0  0
 54 56  1  0  0  0  0
 55136  1  0  0  0  0
 55137  1  0  0  0  0
 55138  1  0  0  0  0
 56 57  2  0  0  0  0
 56 58  1  0  0  0  0
 58 63  1  0  0  0  0
 58 59  1  0  0  0  0
 58139  1  6  0  0  0
 59 60  1  0  0  0  0
 59140  1  0  0  0  0
 59141  1  0  0  0  0
 60 61  1  0  0  0  0
 60 62  1  0  0  0  0
 60142  1  0  0  0  0
 61143  1  0  0  0  0
 61144  1  0  0  0  0
 61145  1  0  0  0  0
 62146  1  0  0  0  0
 62147  1  0  0  0  0
 62148  1  0  0  0  0
 63 64  1  0  0  0  0
 63149  1  0  0  0  0
 64 65  2  0  0  0  0
 64 66  1  0  0  0  0
 66 70  1  0  0  0  0
 66 67  1  0  0  0  0
 66150  1  6  0  0  0
 67 68  1  0  0  0  0
 67 69  1  0  0  0  0
 67151  1  0  0  0  0
 68152  1  0  0  0  0
 68153  1  0  0  0  0
 68154  1  0  0  0  0
 69155  1  0  0  0  0
 69156  1  0  0  0  0
 69157  1  0  0  0  0
 70 71  1  0  0  0  0
 70158  1  0  0  0  0
 71 72  2  0  0  0  0
M  END
>  <MOL Chiral Flag>
1

>  <Energy>
1378.56

$$$$
