62
 OpenBabel03292021503D

168171  0  0  1  0  0  0  0  0999 V2000
    6.5053    1.9932   -2.7892 C   0  0  0  0  0  0  0  0  0  0  0  0
    6.7995    2.6235   -4.1781 C   0  0  0  0  0  0  0  0  0  0  0  0
    6.8944    1.7644   -5.4895 C   0  0  2  0  0  0  0  0  0  0  0  0
    7.0390    0.3012   -4.9697 C   0  0  0  0  0  0  0  0  0  0  0  0
    5.7259    1.8150   -6.6799 C   0  0  2  0  0  0  0  0  0  0  0  0
    5.5719    2.9030   -7.9122 N   0  0  0  0  0  0  0  0  0  0  0  0
    6.2397    2.9428   -9.1711 C   0  0  0  0  0  0  0  0  0  0  0  0
    7.1295    2.0841   -9.2237 O   0  0  0  0  0  0  0  0  0  0  0  0
    5.8886    3.7549  -10.7404 C   0  0  2  0  0  0  0  0  0  0  0  0
    7.1768    4.1543  -11.4910 C   0  0  0  0  0  0  0  0  0  0  0  0
    7.0859    5.6608  -11.8022 C   0  0  0  0  0  0  0  0  0  0  0  0
    5.6777    6.0604  -11.3953 C   0  0  0  0  0  0  0  0  0  0  0  0
    4.9859    4.7963  -11.4610 N   0  0  0  0  0  0  0  0  0  0  0  0
    4.2933    4.7411  -12.7354 C   0  0  0  0  0  0  0  0  0  0  0  0
    3.5786    5.7013  -13.0709 O   0  0  0  0  0  0  0  0  0  0  0  0
    4.4796    3.5785  -13.7793 C   0  0  2  0  0  0  0  0  0  0  0  0
    3.9151    3.8064  -15.2227 C   0  0  0  0  0  0  0  0  0  0  0  0
    4.7020    4.4262  -16.3687 C   0  0  0  0  0  0  0  0  0  0  0  0
    5.8986    3.8646  -16.8428 C   0  0  0  0  0  0  0  0  0  0  0  0
    6.4508    4.2795  -18.0658 C   0  0  0  0  0  0  0  0  0  0  0  0
    5.8160    5.2533  -18.8357 C   0  0  0  0  0  0  0  0  0  0  0  0
    4.6333    5.8238  -18.3787 C   0  0  0  0  0  0  0  0  0  0  0  0
    4.0835    5.4140  -17.1584 C   0  0  0  0  0  0  0  0  0  0  0  0
    3.8093    2.4052  -13.1707 N   0  0  0  0  0  0  0  0  0  0  0  0
    2.3966    2.1809  -13.4093 C   0  0  0  0  0  0  0  0  0  0  0  0
    4.6513    1.4768  -12.6165 C   0  0  0  0  0  0  0  0  0  0  0  0
    5.7759    1.4039  -13.0874 O   0  0  0  0  0  0  0  0  0  0  0  0
    4.2529    0.6032  -11.4420 C   0  0  2  0  0  0  0  0  0  0  0  0
    3.4429    1.2628  -10.2296 C   0  0  0  0  0  0  0  0  0  0  0  0
    2.4941    2.4704  -10.2864 C   0  0  0  0  0  0  0  0  0  0  0  0
    1.1405    2.3749  -10.6237 C   0  0  0  0  0  0  0  0  0  0  0  0
    0.3271    3.5134  -10.7239 C   0  0  0  0  0  0  0  0  0  0  0  0
    0.8254    4.7931  -10.5062 C   0  0  0  0  0  0  0  0  0  0  0  0
    2.1277    4.9125  -10.0842 C   0  0  0  0  0  0  0  0  0  0  0  0
    2.9177    3.7581   -9.9177 C   0  0  0  0  0  0  0  0  0  0  0  0
    5.4903   -0.1594  -10.8749 N   0  0  0  0  0  0  0  0  0  0  0  0
    6.7634   -0.4421  -11.3906 C   0  0  0  0  0  0  0  0  0  0  0  0
    7.0340   -1.6557  -11.4332 O   0  0  0  0  0  0  0  0  0  0  0  0
    7.9636    0.6310  -11.5942 C   0  0  2  0  0  0  0  0  0  0  0  0
    8.7299    0.4794  -12.9839 C   0  0  0  0  0  0  0  0  0  0  0  0
    9.8356    1.5304  -13.1569 C   0  0  0  0  0  0  0  0  0  0  0  0
    7.9027    0.5029  -14.2734 C   0  0  0  0  0  0  0  0  0  0  0  0
    8.9676    0.5130  -10.4165 N   0  0  0  0  0  0  0  0  0  0  0  0
    9.7736   -0.7048  -10.4005 C   0  0  0  0  0  0  0  0  0  0  0  0
    9.5451    1.6663   -9.8096 C   0  0  0  0  0  0  0  0  0  0  0  0
    9.9066    2.6403  -10.4824 O   0  0  0  0  0  0  0  0  0  0  0  0
    9.6330    1.7884   -8.2111 C   0  0  1  0  0  0  0  0  0  0  0  0
   10.2796    0.5438   -7.5442 C   0  0  0  0  0  0  0  0  0  0  0  0
   10.9640    0.8093   -6.2046 C   0  0  0  0  0  0  0  0  0  0  0  0
    9.2569   -0.5837   -7.3243 C   0  0  0  0  0  0  0  0  0  0  0  0
   10.4008    3.0217   -7.8714 O   0  0  0  0  0  0  0  0  0  0  0  0
   10.0739    4.0768   -7.0591 C   0  0  0  0  0  0  0  0  0  0  0  0
   10.9545    4.5304   -6.3232 O   0  0  0  0  0  0  0  0  0  0  0  0
    8.7049    4.8347   -7.2050 C   0  0  2  0  0  0  0  0  0  0  0  0
    8.7620    5.8951   -8.3710 C   0  0  0  0  0  0  0  0  0  0  0  0
    7.4203    6.6334   -8.5214 C   0  0  0  0  0  0  0  0  0  0  0  0
    9.8351    6.9844   -8.3418 C   0  0  0  0  0  0  0  0  0  0  0  0
    8.9624    5.2183   -9.6007 O   0  0  0  0  0  0  0  0  0  0  0  0
    8.1470    5.4721   -5.9237 N   0  0  0  0  0  0  0  0  0  0  0  0
    9.0264    6.4076   -5.2345 C   0  0  0  0  0  0  0  0  0  0  0  0
    6.7540    5.4774   -5.7097 C   0  0  0  0  0  0  0  0  0  0  0  0
    6.0060    5.0751   -6.6060 O   0  0  0  0  0  0  0  0  0  0  0  0
    6.0631    6.0630   -4.4102 C   0  0  2  0  0  0  0  0  0  0  0  0
    6.8573    5.8238   -3.1031 C   0  0  0  0  0  0  0  0  0  0  0  0
    6.3920    6.2279   -1.6923 C   0  0  0  0  0  0  0  0  0  0  0  0
    5.0451    5.6883   -1.2426 C   0  0  0  0  0  0  0  0  0  0  0  0
    7.4674    5.7306   -0.7023 C   0  0  0  0  0  0  0  0  0  0  0  0
    4.5652    5.8320   -4.3170 N   0  0  0  0  0  0  0  0  0  0  0  0
    3.7224    4.7465   -4.2266 C   0  0  0  0  0  0  0  0  0  0  0  0
    2.8808    4.7907   -3.3164 O   0  0  0  0  0  0  0  0  0  0  0  0
    3.6301    3.5989   -5.2957 C   0  0  2  0  0  0  0  0  0  0  0  0
    2.1889    3.5465   -5.9331 C   0  0  0  0  0  0  0  0  0  0  0  0
    1.8402    2.2518   -6.7093 C   0  0  0  0  0  0  0  0  0  0  0  0
    2.0081    4.7315   -6.8622 C   0  0  0  0  0  0  0  0  0  0  0  0
    3.9832    2.2458   -4.8653 N   0  0  0  0  0  0  0  0  0  0  0  0
    3.2296    1.6933   -3.7336 C   0  0  0  0  0  0  0  0  0  0  0  0
    4.4783    1.3576   -5.8390 C   0  0  0  0  0  0  0  0  0  0  0  0
    4.1033    0.1833   -5.8884 O   0  0  0  0  0  0  0  0  0  0  0  0
    6.3921    2.7745   -2.0269 H   0  0  0  0  0  0  0  0  0  0  0  0
    7.3200    1.3484   -2.4415 H   0  0  0  0  0  0  0  0  0  0  0  0
    5.5878    1.4062   -2.7550 H   0  0  0  0  0  0  0  0  0  0  0  0
    7.7891    3.0800   -4.0476 H   0  0  0  0  0  0  0  0  0  0  0  0
    6.0942    3.4283   -4.3223 H   0  0  0  0  0  0  0  0  0  0  0  0
    7.8324    2.0515   -5.9609 H   0  0  0  0  0  0  0  0  0  0  0  0
    6.2307    0.0081   -4.2890 H   0  0  0  0  0  0  0  0  0  0  0  0
    7.9740    0.1806   -4.4056 H   0  0  0  0  0  0  0  0  0  0  0  0
    7.0039   -0.4307   -5.7741 H   0  0  0  0  0  0  0  0  0  0  0  0
    5.9816    0.9313   -7.2851 H   0  0  0  0  0  0  0  0  0  0  0  0
    4.7856    3.5367   -7.8160 H   0  0  0  0  0  0  0  0  0  0  0  0
    5.5475    2.8529  -11.2055 H   0  0  0  0  0  0  0  0  0  0  0  0
    7.2194    3.6411  -12.4605 H   0  0  0  0  0  0  0  0  0  0  0  0
    8.0856    3.8602  -10.9900 H   0  0  0  0  0  0  0  0  0  0  0  0
    7.2246    5.8061  -12.8810 H   0  0  0  0  0  0  0  0  0  0  0  0
    7.8371    6.2882  -11.3247 H   0  0  0  0  0  0  0  0  0  0  0  0
    5.2892    6.8402  -12.0611 H   0  0  0  0  0  0  0  0  0  0  0  0
    5.5843    6.4329  -10.3802 H   0  0  0  0  0  0  0  0  0  0  0  0
    5.5602    3.4400  -13.8754 H   0  0  0  0  0  0  0  0  0  0  0  0
    3.6911    2.8140  -15.6439 H   0  0  0  0  0  0  0  0  0  0  0  0
    2.9447    4.3121  -15.1487 H   0  0  0  0  0  0  0  0  0  0  0  0
    6.3812    3.0502  -16.3075 H   0  0  0  0  0  0  0  0  0  0  0  0
    7.3602    3.8141  -18.4405 H   0  0  0  0  0  0  0  0  0  0  0  0
    6.2287    5.5510  -19.7975 H   0  0  0  0  0  0  0  0  0  0  0  0
    4.1171    6.5633  -18.9861 H   0  0  0  0  0  0  0  0  0  0  0  0
    3.1272    5.8362  -16.8559 H   0  0  0  0  0  0  0  0  0  0  0  0
    2.2351    1.9308  -14.4606 H   0  0  0  0  0  0  0  0  0  0  0  0
    1.8425    3.0917  -13.1809 H   0  0  0  0  0  0  0  0  0  0  0  0
    2.0307    1.3221  -12.8464 H   0  0  0  0  0  0  0  0  0  0  0  0
    3.6069   -0.1787  -11.8731 H   0  0  0  0  0  0  0  0  0  0  0  0
    2.8649    0.4482   -9.7711 H   0  0  0  0  0  0  0  0  0  0  0  0
    4.1771    1.4914   -9.4540 H   0  0  0  0  0  0  0  0  0  0  0  0
    0.6965    1.4037  -10.8208 H   0  0  0  0  0  0  0  0  0  0  0  0
   -0.7185    3.4221  -11.0381 H   0  0  0  0  0  0  0  0  0  0  0  0
    0.2185    5.6872  -10.6346 H   0  0  0  0  0  0  0  0  0  0  0  0
    2.5511    5.9046   -9.8702 H   0  0  0  0  0  0  0  0  0  0  0  0
    3.8845    3.9219   -9.5029 H   0  0  0  0  0  0  0  0  0  0  0  0
    5.1520   -1.0766  -10.6030 H   0  0  0  0  0  0  0  0  0  0  0  0
    7.5390    1.6256  -11.5351 H   0  0  0  0  0  0  0  0  0  0  0  0
    9.2085   -0.5032  -13.0150 H   0  0  0  0  0  0  0  0  0  0  0  0
    9.4413    2.5455  -13.0363 H   0  0  0  0  0  0  0  0  0  0  0  0
   10.2834    1.4749  -14.1550 H   0  0  0  0  0  0  0  0  0  0  0  0
   10.6517    1.3726  -12.4478 H   0  0  0  0  0  0  0  0  0  0  0  0
    7.5437    1.5031  -14.5098 H   0  0  0  0  0  0  0  0  0  0  0  0
    7.0747   -0.2113  -14.2407 H   0  0  0  0  0  0  0  0  0  0  0  0
    8.5298    0.2030  -15.1234 H   0  0  0  0  0  0  0  0  0  0  0  0
    9.7327   -1.2492  -11.3410 H   0  0  0  0  0  0  0  0  0  0  0  0
    9.3899   -1.3937   -9.6558 H   0  0  0  0  0  0  0  0  0  0  0  0
   10.8232   -0.4622  -10.2180 H   0  0  0  0  0  0  0  0  0  0  0  0
    8.6500    1.9294   -7.7857 H   0  0  0  0  0  0  0  0  0  0  0  0
   11.0620    0.1688   -8.2102 H   0  0  0  0  0  0  0  0  0  0  0  0
   10.2611    1.2155   -5.4690 H   0  0  0  0  0  0  0  0  0  0  0  0
   11.8016    1.5027   -6.3138 H   0  0  0  0  0  0  0  0  0  0  0  0
   11.3654   -0.1276   -5.7978 H   0  0  0  0  0  0  0  0  0  0  0  0
    8.9302   -0.6037   -6.2886 H   0  0  0  0  0  0  0  0  0  0  0  0
    9.7123   -1.5647   -7.4905 H   0  0  0  0  0  0  0  0  0  0  0  0
    8.3661   -0.4944   -7.9515 H   0  0  0  0  0  0  0  0  0  0  0  0
    7.9935    4.0564   -7.4796 H   0  0  0  0  0  0  0  0  0  0  0  0
    7.4280    7.3155   -9.3780 H   0  0  0  0  0  0  0  0  0  0  0  0
    7.1641    7.2443   -7.6508 H   0  0  0  0  0  0  0  0  0  0  0  0
    6.6156    5.9168   -8.6999 H   0  0  0  0  0  0  0  0  0  0  0  0
    9.8580    7.5064   -9.3102 H   0  0  0  0  0  0  0  0  0  0  0  0
   10.8355    6.5713   -8.2019 H   0  0  0  0  0  0  0  0  0  0  0  0
    9.6361    7.7513   -7.5887 H   0  0  0  0  0  0  0  0  0  0  0  0
    9.7795    4.6768   -9.6091 H   0  0  0  0  0  0  0  0  0  0  0  0
    9.9035    6.6590   -5.8266 H   0  0  0  0  0  0  0  0  0  0  0  0
    9.3915    5.9463   -4.3163 H   0  0  0  0  0  0  0  0  0  0  0  0
    8.4908    7.3405   -5.0354 H   0  0  0  0  0  0  0  0  0  0  0  0
    6.1006    7.1482   -4.5862 H   0  0  0  0  0  0  0  0  0  0  0  0
    7.2134    4.8004   -3.0652 H   0  0  0  0  0  0  0  0  0  0  0  0
    7.7691    6.4164   -3.2040 H   0  0  0  0  0  0  0  0  0  0  0  0
    6.3654    7.3230   -1.6319 H   0  0  0  0  0  0  0  0  0  0  0  0
    4.9270    4.6326   -1.5008 H   0  0  0  0  0  0  0  0  0  0  0  0
    4.2288    6.2657   -1.6792 H   0  0  0  0  0  0  0  0  0  0  0  0
    4.9287    5.7821   -0.1574 H   0  0  0  0  0  0  0  0  0  0  0  0
    7.5106    4.6343   -0.6891 H   0  0  0  0  0  0  0  0  0  0  0  0
    7.2585    6.0698    0.3167 H   0  0  0  0  0  0  0  0  0  0  0  0
    8.4627    6.0964   -0.9790 H   0  0  0  0  0  0  0  0  0  0  0  0
    4.1777    6.5202   -3.6833 H   0  0  0  0  0  0  0  0  0  0  0  0
    4.3141    3.8758   -6.0706 H   0  0  0  0  0  0  0  0  0  0  0  0
    1.4396    3.6278   -5.1330 H   0  0  0  0  0  0  0  0  0  0  0  0
    2.5960    2.0125   -7.4602 H   0  0  0  0  0  0  0  0  0  0  0  0
    0.8777    2.3359   -7.2225 H   0  0  0  0  0  0  0  0  0  0  0  0
    1.7386    1.3847   -6.0485 H   0  0  0  0  0  0  0  0  0  0  0  0
    2.8831    4.8417   -7.5047 H   0  0  0  0  0  0  0  0  0  0  0  0
    1.9030    5.6549   -6.2964 H   0  0  0  0  0  0  0  0  0  0  0  0
    1.1132    4.6093   -7.4785 H   0  0  0  0  0  0  0  0  0  0  0  0
    2.1602    1.6585   -3.9473 H   0  0  0  0  0  0  0  0  0  0  0  0
    3.3968    2.3146   -2.8493 H   0  0  0  0  0  0  0  0  0  0  0  0
    3.5643    0.6760   -3.5072 H   0  0  0  0  0  0  0  0  0  0  0  0
  1  2  1  0  0  0  0
  1 79  1  0  0  0  0
  1 80  1  0  0  0  0
  1 81  1  0  0  0  0
  2 82  1  0  0  0  0
  2 83  1  0  0  0  0
  3  4  1  0  0  0  0
  3  2  1  0  0  0  0
  3 84  1  1  0  0  0
  4 85  1  0  0  0  0
  4 86  1  0  0  0  0
  4 87  1  0  0  0  0
  5  6  1  0  0  0  0
  5 77  1  0  0  0  0
  5  3  1  0  0  0  0
  5 88  1  6  0  0  0
  6  7  1  0  0  0  0
  6 89  1  0  0  0  0
  7  8  2  0  0  0  0
  7  9  1  0  0  0  0
  9 10  1  0  0  0  0
  9 13  1  0  0  0  0
  9 90  1  6  0  0  0
 10 11  1  0  0  0  0
 10 91  1  0  0  0  0
 10 92  1  0  0  0  0
 11 12  1  0  0  0  0
 11 93  1  0  0  0  0
 11 94  1  0  0  0  0
 12 13  1  0  0  0  0
 12 95  1  0  0  0  0
 12 96  1  0  0  0  0
 13 14  1  0  0  0  0
 14 15  2  0  0  0  0
 14 16  1  0  0  0  0
 16 24  1  0  0  0  0
 16 17  1  0  0  0  0
 16 97  1  6  0  0  0
 17 18  1  0  0  0  0
 17 98  1  0  0  0  0
 17 99  1  0  0  0  0
 18 19  1  0  0  0  0
 18 23  2  0  0  0  0
 19 20  2  0  0  0  0
 19100  1  0  0  0  0
 20 21  1  0  0  0  0
 20101  1  0  0  0  0
 21 22  2  0  0  0  0
 21102  1  0  0  0  0
 22 23  1  0  0  0  0
 22103  1  0  0  0  0
 23104  1  0  0  0  0
 24 25  1  0  0  0  0
 24 26  1  0  0  0  0
 25105  1  0  0  0  0
 25106  1  0  0  0  0
 25107  1  0  0  0  0
 26 27  2  0  0  0  0
 26 28  1  0  0  0  0
 28 36  1  0  0  0  0
 28 29  1  0  0  0  0
 28108  1  6  0  0  0
 29 30  1  0  0  0  0
 29109  1  0  0  0  0
 29110  1  0  0  0  0
 30 31  1  0  0  0  0
 30 35  2  0  0  0  0
 31 32  2  0  0  0  0
 31111  1  0  0  0  0
 32 33  1  0  0  0  0
 32112  1  0  0  0  0
 33 34  2  0  0  0  0
 33113  1  0  0  0  0
 34 35  1  0  0  0  0
 34114  1  0  0  0  0
 35115  1  0  0  0  0
 36 37  1  0  0  0  0
 36116  1  0  0  0  0
 37 38  2  0  0  0  0
 37 39  1  0  0  0  0
 39 43  1  0  0  0  0
 39 40  1  0  0  0  0
 39117  1  1  0  0  0
 40 41  1  0  0  0  0
 40 42  1  0  0  0  0
 40118  1  0  0  0  0
 41119  1  0  0  0  0
 41120  1  0  0  0  0
 41121  1  0  0  0  0
 42122  1  0  0  0  0
 42123  1  0  0  0  0
 42124  1  0  0  0  0
 43 44  1  0  0  0  0
 43 45  1  0  0  0  0
 44125  1  0  0  0  0
 44126  1  0  0  0  0
 44127  1  0  0  0  0
 45 46  2  0  0  0  0
 45 47  1  0  0  0  0
 47 48  1  0  0  0  0
 47 51  1  0  0  0  0
 47128  1  1  0  0  0
 48 49  1  0  0  0  0
 48 50  1  0  0  0  0
 48129  1  0  0  0  0
 49130  1  0  0  0  0
 49131  1  0  0  0  0
 49132  1  0  0  0  0
 50133  1  0  0  0  0
 50134  1  0  0  0  0
 50135  1  0  0  0  0
 51 52  1  0  0  0  0
 52 53  2  0  0  0  0
 52 54  1  0  0  0  0
 54 59  1  0  0  0  0
 54 55  1  0  0  0  0
 54136  1  6  0  0  0
 55 56  1  0  0  0  0
 55 57  1  0  0  0  0
 55 58  1  0  0  0  0
 56137  1  0  0  0  0
 56138  1  0  0  0  0
 56139  1  0  0  0  0
 57140  1  0  0  0  0
 57141  1  0  0  0  0
 57142  1  0  0  0  0
 58143  1  0  0  0  0
 59 60  1  0  0  0  0
 59 61  1  0  0  0  0
 60144  1  0  0  0  0
 60145  1  0  0  0  0
 60146  1  0  0  0  0
 61 62  2  0  0  0  0
 61 63  1  0  0  0  0
 63 68  1  0  0  0  0
 63 64  1  0  0  0  0
 63147  1  6  0  0  0
 64 65  1  0  0  0  0
 64148  1  0  0  0  0
 64149  1  0  0  0  0
 65 66  1  0  0  0  0
 65 67  1  0  0  0  0
 65150  1  0  0  0  0
 66151  1  0  0  0  0
 66152  1  0  0  0  0
 66153  1  0  0  0  0
 67154  1  0  0  0  0
 67155  1  0  0  0  0
 67156  1  0  0  0  0
 68 69  1  0  0  0  0
 68157  1  0  0  0  0
 69 70  2  0  0  0  0
 69 71  1  0  0  0  0
 71 75  1  0  0  0  0
 71 72  1  0  0  0  0
 71158  1  6  0  0  0
 72 73  1  0  0  0  0
 72 74  1  0  0  0  0
 72159  1  0  0  0  0
 73160  1  0  0  0  0
 73161  1  0  0  0  0
 73162  1  0  0  0  0
 74163  1  0  0  0  0
 74164  1  0  0  0  0
 74165  1  0  0  0  0
 75 76  1  0  0  0  0
 75 77  1  0  0  0  0
 76166  1  0  0  0  0
 76167  1  0  0  0  0
 76168  1  0  0  0  0
 77 78  2  0  0  0  0
M  END
>  <Energy>
620.971

$$$$