44285958
  -OEChem-03242010093D

 64 65  0     1  0  0  0  0  0999 V2000
   -3.3095    0.7141   -0.0920 O   0  0  0  0  0  0  0  0  0  0  0  0
    1.0132   -1.6941   -0.8661 O   0  0  0  0  0  0  0  0  0  0  0  0
   -1.3807   -2.7840    1.1941 O   0  0  0  0  0  0  0  0  0  0  0  0
    1.0171    0.5064   -3.1392 O   0  0  0  0  0  0  0  0  0  0  0  0
   -0.4895   -1.4459    2.8550 O   0  0  0  0  0  0  0  0  0  0  0  0
   -5.6142    0.6854   -0.7416 O   0  0  0  0  0  0  0  0  0  0  0  0
    2.2251   -2.1756    1.0386 O   0  0  0  0  0  0  0  0  0  0  0  0
   -0.4179    0.9284   -1.3665 N   0  0  0  0  0  0  0  0  0  0  0  0
   -0.8544    0.7434    0.0507 C   0  0  2  0  0  0  0  0  0  0  0  0
   -2.1589   -0.0895    0.1679 C   0  0  1  0  0  0  0  0  0  0  0  0
   -0.9036    2.0844    0.7927 C   0  0  0  0  0  0  0  0  0  0  0  0
    1.6763   -0.4295   -1.0407 C   0  0  2  0  0  0  0  0  0  0  0  0
   -2.3747   -0.6853    1.5644 C   0  0  0  0  0  0  0  0  0  0  0  0
    0.7396    0.3729   -1.9415 C   0  0  0  0  0  0  0  0  0  0  0  0
    3.0303   -0.6622   -1.7075 C   0  0  0  0  0  0  0  0  0  0  0  0
    0.4741    2.5672    1.1442 C   0  0  0  0  0  0  0  0  0  0  0  0
   -1.2996    1.6759   -2.2628 C   0  0  0  0  0  0  0  0  0  0  0  0
   -1.3029   -1.6648    1.9667 C   0  0  0  0  0  0  0  0  0  0  0  0
    2.8634   -1.4659   -2.9953 C   0  0  0  0  0  0  0  0  0  0  0  0
    3.7249    0.6678   -1.9907 C   0  0  0  0  0  0  0  0  0  0  0  0
    0.5918   -3.7610    0.1871 C   0  0  1  0  0  0  0  0  0  0  0  0
   -0.3692   -3.7948    1.3759 C   0  0  0  0  0  0  0  0  0  0  0  0
    1.3876   -2.4666    0.1944 C   0  0  0  0  0  0  0  0  0  0  0  0
    1.0503    2.2059    2.3620 C   0  0  0  0  0  0  0  0  0  0  0  0
    1.1777    3.3774    0.2529 C   0  0  0  0  0  0  0  0  0  0  0  0
   -4.4234   -0.0682   -0.5144 C   0  0  0  0  0  0  0  0  0  0  0  0
    1.5548   -4.9427    0.2145 C   0  0  0  0  0  0  0  0  0  0  0  0
    2.3301    2.6547    2.6884 C   0  0  0  0  0  0  0  0  0  0  0  0
    2.4574    3.8260    0.5793 C   0  0  0  0  0  0  0  0  0  0  0  0
    3.0337    3.4647    1.7970 C   0  0  0  0  0  0  0  0  0  0  0  0
   -5.4491    1.6557   -1.7673 C   0  0  0  0  0  0  0  0  0  0  0  0
   -0.0926    0.1378    0.5395 H   0  0  0  0  0  0  0  0  0  0  0  0
   -2.0994   -0.9017   -0.5700 H   0  0  0  0  0  0  0  0  0  0  0  0
   -1.4641    1.9828    1.7297 H   0  0  0  0  0  0  0  0  0  0  0  0
   -1.4411    2.8614    0.2404 H   0  0  0  0  0  0  0  0  0  0  0  0
    1.8239    0.0855   -0.0864 H   0  0  0  0  0  0  0  0  0  0  0  0
   -3.3271   -1.2149    1.6639 H   0  0  0  0  0  0  0  0  0  0  0  0
   -2.4258    0.1026    2.3246 H   0  0  0  0  0  0  0  0  0  0  0  0
    3.6601   -1.2510   -1.0292 H   0  0  0  0  0  0  0  0  0  0  0  0
   -2.1751    1.0595   -2.4836 H   0  0  0  0  0  0  0  0  0  0  0  0
   -0.8111    1.9178   -3.2106 H   0  0  0  0  0  0  0  0  0  0  0  0
   -1.6164    2.6143   -1.8068 H   0  0  0  0  0  0  0  0  0  0  0  0
    2.6241   -0.8658   -3.8767 H   0  0  0  0  0  0  0  0  0  0  0  0
    2.1371   -2.2796   -2.9131 H   0  0  0  0  0  0  0  0  0  0  0  0
    3.8245   -1.9400   -3.2338 H   0  0  0  0  0  0  0  0  0  0  0  0
    3.2274    1.2821   -2.7451 H   0  0  0  0  0  0  0  0  0  0  0  0
    4.7428    0.4843   -2.3538 H   0  0  0  0  0  0  0  0  0  0  0  0
    3.8105    1.2614   -1.0743 H   0  0  0  0  0  0  0  0  0  0  0  0
    0.0130   -3.8048   -0.7445 H   0  0  0  0  0  0  0  0  0  0  0  0
   -0.8921   -4.7567    1.4114 H   0  0  0  0  0  0  0  0  0  0  0  0
    0.1578   -3.6751    2.3296 H   0  0  0  0  0  0  0  0  0  0  0  0
    0.5141    1.5725    3.0636 H   0  0  0  0  0  0  0  0  0  0  0  0
    0.7405    3.6687   -0.6983 H   0  0  0  0  0  0  0  0  0  0  0  0
   -4.1712   -0.6035   -1.4384 H   0  0  0  0  0  0  0  0  0  0  0  0
   -4.6910   -0.8126    0.2379 H   0  0  0  0  0  0  0  0  0  0  0  0
    2.1449   -4.9581    1.1376 H   0  0  0  0  0  0  0  0  0  0  0  0
    2.2570   -4.8912   -0.6247 H   0  0  0  0  0  0  0  0  0  0  0  0
    1.0102   -5.8900    0.1440 H   0  0  0  0  0  0  0  0  0  0  0  0
    2.7792    2.3723    3.6361 H   0  0  0  0  0  0  0  0  0  0  0  0
    3.0054    4.4561   -0.1150 H   0  0  0  0  0  0  0  0  0  0  0  0
    4.0304    3.8134    2.0508 H   0  0  0  0  0  0  0  0  0  0  0  0
   -6.4084    2.1565   -1.9234 H   0  0  0  0  0  0  0  0  0  0  0  0
   -5.1484    1.1778   -2.7047 H   0  0  0  0  0  0  0  0  0  0  0  0
   -4.7106    2.4074   -1.4732 H   0  0  0  0  0  0  0  0  0  0  0  0
  1 10  1  0  0  0  0
  1 26  1  0  0  0  0
  2 12  1  0  0  0  0
  2 23  1  0  0  0  0
  3 18  1  0  0  0  0
  3 22  1  0  0  0  0
  4 14  2  0  0  0  0
  5 18  2  0  0  0  0
  6 26  1  0  0  0  0
  6 31  1  0  0  0  0
  7 23  2  0  0  0  0
  8  9  1  0  0  0  0
  8 14  1  0  0  0  0
  8 17  1  0  0  0  0
  9 10  1  0  0  0  0
  9 11  1  0  0  0  0
  9 32  1  0  0  0  0
 10 13  1  0  0  0  0
 10 33  1  0  0  0  0
 11 16  1  0  0  0  0
 11 34  1  0  0  0  0
 11 35  1  0  0  0  0
 12 14  1  0  0  0  0
 12 15  1  0  0  0  0
 12 36  1  0  0  0  0
 13 18  1  0  0  0  0
 13 37  1  0  0  0  0
 13 38  1  0  0  0  0
 15 19  1  0  0  0  0
 15 20  1  0  0  0  0
 15 39  1  0  0  0  0
 16 24  2  0  0  0  0
 16 25  1  0  0  0  0
 17 40  1  0  0  0  0
 17 41  1  0  0  0  0
 17 42  1  0  0  0  0
 19 43  1  0  0  0  0
 19 44  1  0  0  0  0
 19 45  1  0  0  0  0
 20 46  1  0  0  0  0
 20 47  1  0  0  0  0
 20 48  1  0  0  0  0
 21 22  1  0  0  0  0
 21 23  1  0  0  0  0
 21 27  1  0  0  0  0
 21 49  1  0  0  0  0
 22 50  1  0  0  0  0
 22 51  1  0  0  0  0
 24 28  1  0  0  0  0
 24 52  1  0  0  0  0
 25 29  2  0  0  0  0
 25 53  1  0  0  0  0
 26 54  1  0  0  0  0
 26 55  1  0  0  0  0
 27 56  1  0  0  0  0
 27 57  1  0  0  0  0
 27 58  1  0  0  0  0
 28 30  2  0  0  0  0
 28 59  1  0  0  0  0
 29 30  1  0  0  0  0
 29 60  1  0  0  0  0
 30 61  1  0  0  0  0
 31 62  1  0  0  0  0
 31 63  1  0  0  0  0
 31 64  1  0  0  0  0
M  END
> <PUBCHEM_COMPOUND_CID>
44285958

> <PUBCHEM_CONFORMER_RMSD>
1

> <PUBCHEM_CONFORMER_DIVERSEORDER>
1
7
51
56
36
39
4
22
31
25
14
40
16
3
37
17
11
50
47
45
24
53
9
46
41
32
26
19
35
5
43
12
48
6
8
52
23
29
20
44
54
28
38
57
49
18
21
55
2
10
34
15
42
27
33
13
30

> <PUBCHEM_MMFF94_PARTIAL_CHARGES>
32
1 -0.56
10 0.28
11 0.14
12 0.34
13 0.06
14 0.57
16 -0.14
17 0.3
18 0.66
2 -0.43
21 0.06
22 0.28
23 0.66
24 -0.15
25 -0.15
26 0.56
28 -0.15
29 -0.15
3 -0.43
30 -0.15
31 0.28
4 -0.57
5 -0.57
52 0.15
53 0.15
59 0.15
6 -0.56
60 0.15
61 0.15
7 -0.57
8 -0.66
9 0.3

> <PUBCHEM_EFFECTIVE_ROTOR_COUNT>
7.8

> <PUBCHEM_PHARMACOPHORE_FEATURES>
7
1 1 acceptor
1 4 acceptor
1 5 acceptor
1 6 acceptor
1 7 acceptor
3 15 19 20 hydrophobe
6 16 24 25 28 29 30 rings

> <PUBCHEM_HEAVY_ATOM_COUNT>
31

> <PUBCHEM_ATOM_DEF_STEREO_COUNT>
4

> <PUBCHEM_ATOM_UDEF_STEREO_COUNT>
0

> <PUBCHEM_BOND_DEF_STEREO_COUNT>
0

> <PUBCHEM_BOND_UDEF_STEREO_COUNT>
0

> <PUBCHEM_ISOTOPIC_ATOM_COUNT>
0

> <PUBCHEM_COMPONENT_COUNT>
1

> <PUBCHEM_CACTVS_TAUTO_COUNT>
8

> <PUBCHEM_CONFORMER_ID>
02A3C00600000001

> <PUBCHEM_MMFF94_ENERGY>
83.6538

> <PUBCHEM_FEATURE_SELFOVERLAP>
35.557

> <PUBCHEM_SHAPE_FINGERPRINT>
10006869 2 16972568696397961249
11115154 58 17763168147927214181
11578080 2 17835838504522040113
12156800 1 15216918084455518454
12597179 24 17983858066798312185
12788726 201 17334513604835527809
133893 2 17702403881956316625
14068700 675 17759517772763708622
14787075 74 18272104794096501964
15664445 248 17916300542025059135
17980427 26 18269251552890543405
20600515 1 17907624390264977260
20691752 17 17109905863387453706
20775438 99 17986659584041056887
23419403 2 17911826835148373252
35225 105 17827890117795248208
508706 21 17763751283635693038
57527452 28 16098345098324358954
6669772 16 18268981141780832355

> <PUBCHEM_SHAPE_MULTIPOLES>
591.9
6.31
5.68
3.12
8.22
4.5
-0.72
-5.22
-2.88
-3.29
2.83
-1.47
-0.29
3.75

> <PUBCHEM_SHAPE_SELFOVERLAP>
1209.064

> <PUBCHEM_SHAPE_VOLUME>
338.3

> <PUBCHEM_COORDINATE_TYPE>
2
5
10

$$$$