
 OpenBabel03292020533D

105110  0  0  0  0  0  0  0  0999 V2000
    8.7473   -8.3369    1.6071 C   0  0  0  0  0  0  0  0  0  0  0  0
    9.5915   -7.2905    1.1473 O   0  0  0  0  0  0  0  0  0  0  0  0
    9.7226   -7.3191   -0.2726 C   0  0  0  0  0  0  0  0  0  0  0  0
   10.6331   -6.1830   -0.7169 C   0  0  0  0  0  0  0  0  0  0  0  0
   10.7617   -6.2176   -2.1361 O   0  0  0  0  0  0  0  0  0  0  0  0
   11.6073   -5.1692   -2.6041 C   0  0  0  0  0  0  0  0  0  0  0  0
   11.7036   -5.2613   -4.1192 C   0  0  0  0  0  0  0  0  0  0  0  0
   12.5432   -4.2240   -4.6126 O   0  0  0  0  0  0  0  0  0  0  0  0
   12.6513   -4.2992   -6.0368 C   0  0  0  0  0  0  0  0  0  0  0  0
   13.5561   -3.1815   -6.4954 C   0  0  0  0  0  0  0  0  0  0  0  0
   13.7153   -3.1808   -7.9202 O   0  0  0  0  0  0  0  0  0  0  0  0
   14.5062   -2.1465   -8.3850 C   0  0  0  0  0  0  0  0  0  0  0  0
   15.1454   -1.2536   -7.5039 C   0  0  0  0  0  0  0  0  0  0  0  0
   15.8700   -0.2038   -7.9562 C   0  0  0  0  0  0  0  0  0  0  0  0
   16.0598   -0.0246   -9.3309 C   0  0  0  0  0  0  0  0  0  0  0  0
   15.4814   -0.9203  -10.2377 C   0  0  0  0  0  0  0  0  0  0  0  0
   14.6787   -1.9763   -9.7790 C   0  0  0  0  0  0  0  0  0  0  0  0
   14.0432   -2.8584  -10.6240 O   0  0  0  0  0  0  0  0  0  0  0  0
   14.1955   -2.6356  -12.0281 C   0  0  0  0  0  0  0  0  0  0  0  0
   16.9523    1.1043   -9.7533 C   0  0  0  0  0  0  0  0  0  0  0  0
   16.7130    2.3658   -9.0159 N   0  0  0  0  0  0  0  0  0  0  0  0
   17.9322    3.1793   -8.9981 C   0  0  0  0  0  0  0  0  0  0  0  0
   18.3956    3.5780  -10.4072 C   0  0  0  0  0  0  0  0  0  0  0  0
   19.6264    4.4317  -10.3278 C   0  0  0  0  0  0  0  0  0  0  0  0
   20.7941    3.9129   -9.7507 C   0  0  0  0  0  0  0  0  0  0  0  0
   21.9155    4.7143   -9.5990 C   0  0  0  0  0  0  0  0  0  0  0  0
   21.9327    6.0370  -10.0537 C   0  0  0  0  0  0  0  0  0  0  0  0
   23.0725    6.8650   -9.9333 N   0  0  0  0  0  0  0  0  0  0  0  0
   24.3077    6.4716   -9.3904 C   0  0  0  0  0  0  0  0  0  0  0  0
   24.5719    5.3743   -8.9151 O   0  0  0  0  0  0  0  0  0  0  0  0
   25.4311    7.4479   -9.4312 C   0  0  0  0  0  0  0  0  0  0  0  0
   25.4800    8.4010  -10.4381 C   0  0  0  0  0  0  0  0  0  0  0  0
   26.6267    9.1756  -10.5338 C   0  0  0  0  0  0  0  0  0  0  0  0
   27.7418    9.0158   -9.6639 C   0  0  0  0  0  0  0  0  0  0  0  0
   28.8011   10.0318   -9.9420 C   0  0  0  0  0  0  0  0  0  0  0  0
   28.7152   10.8546  -10.8282 O   0  0  0  0  0  0  0  0  0  0  0  0
   29.8255    9.9390   -9.0532 O   0  0  0  0  0  0  0  0  0  0  0  0
   30.7943   10.9606   -9.2493 C   0  0  0  0  0  0  0  0  0  0  0  0
   27.7247    8.0427   -8.6302 C   0  0  0  0  0  0  0  0  0  0  0  0
   28.8616    7.6766   -7.7762 N   0  0  0  0  0  0  0  0  0  0  0  0
   28.7968    7.6469   -6.3660 C   0  0  0  0  0  0  0  0  0  0  0  0
   27.7743    8.0350   -5.7930 O   0  0  0  0  0  0  0  0  0  0  0  0
   30.0006    7.2082   -5.4537 C   0  0  0  0  0  0  0  0  0  0  0  0
   29.6039    7.0737   -4.1318 C   0  0  0  0  0  0  0  0  0  0  0  0
   30.5800    6.9683   -3.1521 C   0  0  0  0  0  0  0  0  0  0  0  0
   31.6864    6.2043   -3.4225 C   0  0  0  0  0  0  0  0  0  0  0  0
   32.3762    5.5968   -2.3373 C   0  0  0  0  0  0  0  0  0  0  0  0
   33.4179    4.7162   -2.5814 C   0  0  0  0  0  0  0  0  0  0  0  0
   33.8027    4.5336   -3.9025 C   0  0  0  0  0  0  0  0  0  0  0  0
   33.1382    5.2202   -4.9607 C   0  0  0  0  0  0  0  0  0  0  0  0
   32.0068    6.0566   -4.7925 C   0  0  0  0  0  0  0  0  0  0  0  0
   31.2142    6.6754   -5.8125 N   0  0  0  0  0  0  0  0  0  0  0  0
   26.5314    7.2821   -8.5311 C   0  0  0  0  0  0  0  0  0  0  0  0
   20.7730    6.5476  -10.6530 C   0  0  0  0  0  0  0  0  0  0  0  0
   19.6252    5.7458  -10.7845 C   0  0  0  0  0  0  0  0  0  0  0  0
   16.1995    2.1866   -7.6399 C   0  0  0  0  0  0  0  0  0  0  0  0
   16.4493    0.8161   -7.0222 C   0  0  0  0  0  0  0  0  0  0  0  0
    8.6801   -8.2713    2.6961 H   0  0  0  0  0  0  0  0  0  0  0  0
    9.1669   -9.3113    1.3394 H   0  0  0  0  0  0  0  0  0  0  0  0
    7.7429   -8.2298    1.1864 H   0  0  0  0  0  0  0  0  0  0  0  0
    8.7384   -7.2121   -0.7447 H   0  0  0  0  0  0  0  0  0  0  0  0
   10.1440   -8.2795   -0.5934 H   0  0  0  0  0  0  0  0  0  0  0  0
   11.6183   -6.2889   -0.2475 H   0  0  0  0  0  0  0  0  0  0  0  0
   10.2114   -5.2215   -0.4010 H   0  0  0  0  0  0  0  0  0  0  0  0
   12.6051   -5.2608   -2.1584 H   0  0  0  0  0  0  0  0  0  0  0  0
   11.1977   -4.1945   -2.3129 H   0  0  0  0  0  0  0  0  0  0  0  0
   10.7048   -5.1704   -4.5611 H   0  0  0  0  0  0  0  0  0  0  0  0
   12.1127   -6.2369   -4.4063 H   0  0  0  0  0  0  0  0  0  0  0  0
   11.6644   -4.1899   -6.4964 H   0  0  0  0  0  0  0  0  0  0  0  0
   13.0804   -5.2621   -6.3307 H   0  0  0  0  0  0  0  0  0  0  0  0
   14.5281   -3.3198   -5.9990 H   0  0  0  0  0  0  0  0  0  0  0  0
   13.1134   -2.2328   -6.1554 H   0  0  0  0  0  0  0  0  0  0  0  0
   15.0216   -1.3323   -6.4175 H   0  0  0  0  0  0  0  0  0  0  0  0
   15.6644   -0.7557  -11.2935 H   0  0  0  0  0  0  0  0  0  0  0  0
   13.6484   -3.4180  -12.5626 H   0  0  0  0  0  0  0  0  0  0  0  0
   15.2459   -2.7087  -12.3320 H   0  0  0  0  0  0  0  0  0  0  0  0
   13.7693   -1.6712  -12.3308 H   0  0  0  0  0  0  0  0  0  0  0  0
   16.8181    1.2948  -10.8230 H   0  0  0  0  0  0  0  0  0  0  0  0
   17.9833    0.7495   -9.6067 H   0  0  0  0  0  0  0  0  0  0  0  0
   18.7240    2.6360   -8.4633 H   0  0  0  0  0  0  0  0  0  0  0  0
   17.7515    4.1007   -8.4293 H   0  0  0  0  0  0  0  0  0  0  0  0
   17.5915    4.1226  -10.9165 H   0  0  0  0  0  0  0  0  0  0  0  0
   18.6262    2.7033  -11.0275 H   0  0  0  0  0  0  0  0  0  0  0  0
   20.8413    2.8915   -9.3851 H   0  0  0  0  0  0  0  0  0  0  0  0
   22.7660    4.2659   -9.1034 H   0  0  0  0  0  0  0  0  0  0  0  0
   22.9664    7.8108  -10.2633 H   0  0  0  0  0  0  0  0  0  0  0  0
   24.6955    8.5322  -11.1753 H   0  0  0  0  0  0  0  0  0  0  0  0
   26.6408    9.9394  -11.3212 H   0  0  0  0  0  0  0  0  0  0  0  0
   31.5993   10.7904   -8.5345 H   0  0  0  0  0  0  0  0  0  0  0  0
   30.3593   11.9481   -9.0596 H   0  0  0  0  0  0  0  0  0  0  0  0
   31.2103   10.9114  -10.2624 H   0  0  0  0  0  0  0  0  0  0  0  0
   29.7737    7.5835   -8.2126 H   0  0  0  0  0  0  0  0  0  0  0  0
   28.9664    6.1508   -4.1503 H   0  0  0  0  0  0  0  0  0  0  0  0
   30.5864    7.6484   -2.3060 H   0  0  0  0  0  0  0  0  0  0  0  0
   32.0247    5.7145   -1.3147 H   0  0  0  0  0  0  0  0  0  0  0  0
   33.8965    4.1782   -1.7659 H   0  0  0  0  0  0  0  0  0  0  0  0
   34.6089    3.8290   -4.1106 H   0  0  0  0  0  0  0  0  0  0  0  0
   33.5053    5.0373   -5.9672 H   0  0  0  0  0  0  0  0  0  0  0  0
   26.4667    6.4846   -7.7937 H   0  0  0  0  0  0  0  0  0  0  0  0
   20.7202    7.5645  -11.0261 H   0  0  0  0  0  0  0  0  0  0  0  0
   18.7252    6.1589  -11.2337 H   0  0  0  0  0  0  0  0  0  0  0  0
   15.1140    2.3547   -7.6899 H   0  0  0  0  0  0  0  0  0  0  0  0
   16.5740    2.9549   -6.9514 H   0  0  0  0  0  0  0  0  0  0  0  0
   15.9505    0.7575   -6.0474 H   0  0  0  0  0  0  0  0  0  0  0  0
   17.5129    0.6162   -6.8721 H   0  0  0  0  0  0  0  0  0  0  0  0
  1  2  1  0  0  0  0
  1 58  1  0  0  0  0
  1 59  1  0  0  0  0
  1 60  1  0  0  0  0
  2  3  1  0  0  0  0
  3  4  1  0  0  0  0
  3 61  1  0  0  0  0
  3 62  1  0  0  0  0
  4  5  1  0  0  0  0
  4 63  1  0  0  0  0
  4 64  1  0  0  0  0
  5  6  1  0  0  0  0
  6  7  1  0  0  0  0
  6 65  1  0  0  0  0
  6 66  1  0  0  0  0
  7  8  1  0  0  0  0
  7 67  1  0  0  0  0
  7 68  1  0  0  0  0
  8  9  1  0  0  0  0
  9 10  1  0  0  0  0
  9 69  1  0  0  0  0
  9 70  1  0  0  0  0
 10 11  1  0  0  0  0
 10 71  1  0  0  0  0
 10 72  1  0  0  0  0
 11 12  1  0  0  0  0
 12 13  1  0  0  0  0
 12 17  2  0  0  0  0
 13 14  2  0  0  0  0
 13 73  1  0  0  0  0
 14 15  1  0  0  0  0
 14 57  1  0  0  0  0
 15 16  2  0  0  0  0
 15 20  1  0  0  0  0
 16 17  1  0  0  0  0
 16 74  1  0  0  0  0
 17 18  1  0  0  0  0
 18 19  1  0  0  0  0
 19 75  1  0  0  0  0
 19 76  1  0  0  0  0
 19 77  1  0  0  0  0
 20 21  1  0  0  0  0
 20 78  1  0  0  0  0
 20 79  1  0  0  0  0
 21 22  1  0  0  0  0
 21 56  1  0  0  0  0
 22 23  1  0  0  0  0
 22 80  1  0  0  0  0
 22 81  1  0  0  0  0
 23 24  1  0  0  0  0
 23 82  1  0  0  0  0
 23 83  1  0  0  0  0
 24 25  1  0  0  0  0
 24 55  2  0  0  0  0
 25 26  2  0  0  0  0
 25 84  1  0  0  0  0
 26 27  1  0  0  0  0
 26 85  1  0  0  0  0
 27 28  1  0  0  0  0
 27 54  2  0  0  0  0
 28 29  1  0  0  0  0
 28 86  1  0  0  0  0
 29 30  2  0  0  0  0
 29 31  1  0  0  0  0
 31 32  1  0  0  0  0
 31 53  2  0  0  0  0
 32 33  2  0  0  0  0
 32 87  1  0  0  0  0
 33 34  1  0  0  0  0
 33 88  1  0  0  0  0
 34 35  1  0  0  0  0
 34 39  2  0  0  0  0
 35 36  2  0  0  0  0
 35 37  1  0  0  0  0
 37 38  1  0  0  0  0
 38 89  1  0  0  0  0
 38 90  1  0  0  0  0
 38 91  1  0  0  0  0
 39 40  1  0  0  0  0
 39 53  1  0  0  0  0
 40 41  1  0  0  0  0
 40 92  1  0  0  0  0
 41 42  2  0  0  0  0
 41 43  1  0  0  0  0
 43 44  1  0  0  0  0
 43 52  2  0  0  0  0
 44 45  2  0  0  0  0
 44 93  1  0  0  0  0
 45 46  1  0  0  0  0
 45 94  1  0  0  0  0
 46 47  1  0  0  0  0
 46 51  2  0  0  0  0
 47 48  2  0  0  0  0
 47 95  1  0  0  0  0
 48 49  1  0  0  0  0
 48 96  1  0  0  0  0
 49 50  2  0  0  0  0
 49 97  1  0  0  0  0
 50 51  1  0  0  0  0
 50 98  1  0  0  0  0
 51 52  1  0  0  0  0
 53 99  1  0  0  0  0
 54 55  1  0  0  0  0
 54100  1  0  0  0  0
 55101  1  0  0  0  0
 56 57  1  0  0  0  0
 56102  1  0  0  0  0
 56103  1  0  0  0  0
 57104  1  0  0  0  0
 57105  1  0  0  0  0
M  END
>  <Energy>
344.698

$$$$