63
 OpenBabel03292021503D

199199  0  0  1  0  0  0  0  0999 V2000
    4.6137    0.2840   -3.7481 C   0  0  0  0  0  0  0  0  0  0  0  0
    6.1671    0.1445   -4.0091 C   0  0  0  0  0  0  0  0  0  0  0  0
    7.0101   -0.6608   -3.3094 C   0  0  0  0  0  0  0  0  0  0  0  0
    8.6481   -0.6408   -3.2746 C   0  0  0  0  0  0  0  0  0  0  0  0
    9.7280   -1.8414   -3.8201 C   0  0  1  0  0  0  0  0  0  0  0  0
    8.8537   -2.7300   -4.7272 C   0  0  0  0  0  0  0  0  0  0  0  0
   11.4465   -1.5104   -4.4256 C   0  0  1  0  0  0  0  0  0  0  0  0
   11.6586   -0.1152   -4.2529 O   0  0  0  0  0  0  0  0  0  0  0  0
   13.0049   -2.5011   -4.0797 C   0  0  1  0  0  0  0  0  0  0  0  0
   14.8550   -2.1169   -3.8073 C   0  0  0  0  0  0  0  0  0  0  0  0
   15.1469   -1.1887   -3.0381 O   0  0  0  0  0  0  0  0  0  0  0  0
   16.0834   -3.0010   -4.2925 N   0  0  0  0  0  0  0  0  0  0  0  0
   17.8743   -2.9724   -4.0015 C   0  0  1  0  0  0  0  0  0  0  0  0
   19.0041   -2.2904   -5.0867 C   0  0  0  0  0  0  0  0  0  0  0  0
   20.6006   -2.6534   -4.9810 C   0  0  0  0  0  0  0  0  0  0  0  0
   21.7972   -1.6831   -4.8709 C   0  0  0  0  0  0  0  0  0  0  0  0
   18.7542   -4.1247   -3.1110 C   0  0  0  0  0  0  0  0  0  0  0  0
   18.7430   -3.9966   -1.8831 O   0  0  0  0  0  0  0  0  0  0  0  0
   19.6426   -5.1267   -3.5648 N   0  0  0  0  0  0  0  0  0  0  0  0
   19.8876   -5.5196   -4.9496 C   0  0  0  0  0  0  0  0  0  0  0  0
   20.2207   -6.0977   -2.5599 C   0  0  0  0  0  0  0  0  0  0  0  0
   21.0469   -5.9956   -1.2044 C   0  0  0  0  0  0  0  0  0  0  0  0
   20.7106   -6.7835   -0.3013 O   0  0  0  0  0  0  0  0  0  0  0  0
   22.2259   -5.2761   -1.0489 N   0  0  0  0  0  0  0  0  0  0  0  0
   22.8072   -4.4801   -2.1125 C   0  0  0  0  0  0  0  0  0  0  0  0
   22.8876   -5.2479    0.3166 C   0  0  2  0  0  0  0  0  0  0  0  0
   22.9538   -3.7855    0.8576 C   0  0  0  0  0  0  0  0  0  0  0  0
   21.5739   -3.1865    1.1967 C   0  0  0  0  0  0  0  0  0  0  0  0
   20.9388   -3.9030    2.3811 C   0  0  0  0  0  0  0  0  0  0  0  0
   21.6976   -1.6965    1.5227 C   0  0  0  0  0  0  0  0  0  0  0  0
   24.3207   -5.8755    0.3932 C   0  0  0  0  0  0  0  0  0  0  0  0
   25.2229   -5.4912   -0.3637 O   0  0  0  0  0  0  0  0  0  0  0  0
   24.6786   -6.8232    1.3262 N   0  0  0  0  0  0  0  0  0  0  0  0
   23.9008   -7.6149    2.3310 C   0  0  1  0  0  0  0  0  0  0  0  0
   24.6917   -8.8510    2.7549 C   0  0  0  0  0  0  0  0  0  0  0  0
   25.2813   -9.7581    1.6791 C   0  0  0  0  0  0  0  0  0  0  0  0
   25.9559  -10.9501    2.3586 C   0  0  0  0  0  0  0  0  0  0  0  0
   23.5247   -6.6679    3.5223 C   0  0  0  0  0  0  0  0  0  0  0  0
   23.2946   -5.4968    3.1959 O   0  0  0  0  0  0  0  0  0  0  0  0
   23.3333   -7.0063    4.8578 N   0  0  0  0  0  0  0  0  0  0  0  0
   23.6624   -8.2580    5.5392 C   0  0  0  0  0  0  0  0  0  0  0  0
   22.7739   -5.9299    5.7379 C   0  0  2  0  0  0  0  0  0  0  0  0
   23.8669   -5.2062    6.5605 C   0  0  0  0  0  0  0  0  0  0  0  0
   24.9076   -4.4006    5.7169 C   0  0  0  0  0  0  0  0  0  0  0  0
   24.3239   -3.2351    4.9518 C   0  0  0  0  0  0  0  0  0  0  0  0
   25.9971   -3.8684    6.6608 C   0  0  0  0  0  0  0  0  0  0  0  0
   21.6479   -6.4334    6.6906 C   0  0  0  0  0  0  0  0  0  0  0  0
   21.8524   -7.2753    7.5709 O   0  0  0  0  0  0  0  0  0  0  0  0
   20.3637   -5.9854    6.5514 N   0  0  0  0  0  0  0  0  0  0  0  0
   19.8233   -5.0113    5.5968 C   0  0  3  0  0  0  0  0  0  0  0  0
   18.4095   -5.4016    5.2367 C   0  0  0  0  0  0  0  0  0  0  0  0
   20.1742   -3.5658    6.0801 C   0  0  0  0  0  0  0  0  0  0  0  0
   21.3309   -3.3166    6.4499 O   0  0  0  0  0  0  0  0  0  0  0  0
   19.3763   -2.4714    6.0715 N   0  0  0  0  0  0  0  0  0  0  0  0
   17.9831   -2.3004    6.4848 C   0  0  2  0  0  0  0  0  0  0  0  0
   17.6040   -3.1244    7.7132 C   0  0  0  0  0  0  0  0  0  0  0  0
   17.0033   -2.4175    5.3004 C   0  0  0  0  0  0  0  0  0  0  0  0
   16.2234   -3.3787    5.2547 O   0  0  0  0  0  0  0  0  0  0  0  0
   17.0851   -1.4192    4.3060 N   0  0  0  0  0  0  0  0  0  0  0  0
   16.8369   -0.0535    4.7265 C   0  0  0  0  0  0  0  0  0  0  0  0
   16.6306   -1.7219    2.9089 C   0  0  1  0  0  0  0  0  0  0  0  0
   17.5072   -2.7481    2.2121 C   0  0  0  0  0  0  0  0  0  0  0  0
   17.0614   -3.1540    0.7855 C   0  0  0  0  0  0  0  0  0  0  0  0
   17.5146   -2.1014   -0.2236 C   0  0  0  0  0  0  0  0  0  0  0  0
   17.6166   -4.5548    0.4786 C   0  0  0  0  0  0  0  0  0  0  0  0
   15.1113   -1.7284    2.7709 C   0  0  0  0  0  0  0  0  0  0  0  0
   14.5338   -0.6877    2.3940 O   0  0  0  0  0  0  0  0  0  0  0  0
   14.3726   -2.8243    3.1849 N   0  0  0  0  0  0  0  0  0  0  0  0
   14.8402   -4.2061    2.9966 C   0  0  0  0  0  0  0  0  0  0  0  0
   12.9033   -2.7383    3.3344 C   0  0  1  0  0  0  0  0  0  0  0  0
   12.3024   -1.5088    4.0353 C   0  0  0  0  0  0  0  0  0  0  0  0
   10.7611   -1.6032    4.1444 C   0  0  0  0  0  0  0  0  0  0  0  0
   10.3111   -2.7671    5.0307 C   0  0  0  0  0  0  0  0  0  0  0  0
   10.1857   -0.2829    4.6427 C   0  0  0  0  0  0  0  0  0  0  0  0
   12.2225   -3.3399    2.0917 C   0  0  0  0  0  0  0  0  0  0  0  0
   11.9831   -4.5407    2.1950 O   0  0  0  0  0  0  0  0  0  0  0  0
   12.1223   -2.6671    0.8837 N   0  0  0  0  0  0  0  0  0  0  0  0
   11.7628   -1.2538    0.8172 C   0  0  0  0  0  0  0  0  0  0  0  0
   12.5505   -3.3576   -0.3942 C   0  0  1  0  0  0  0  0  0  0  0  0
   12.2916   -4.8895   -0.4981 C   0  0  0  0  0  0  0  0  0  0  0  0
   13.4268   -5.7651    0.0378 C   0  0  0  0  0  0  0  0  0  0  0  0
   10.8539   -5.3403   -0.2092 C   0  0  0  0  0  0  0  0  0  0  0  0
   12.2467   -2.6440   -1.7757 C   0  0  0  0  0  0  0  0  0  0  0  0
   11.8974   -1.4591   -1.8408 O   0  0  0  0  0  0  0  0  0  0  0  0
   12.5576   -3.3655   -2.9680 N   0  0  0  0  0  0  0  0  0  0  0  0
   11.5586   -4.3596   -3.4074 C   0  0  0  0  0  0  0  0  0  0  0  0
    4.1030    0.6333   -4.6508 H   0  0  0  0  0  0  0  0  0  0  0  0
    4.4347    1.0174   -2.9549 H   0  0  0  0  0  0  0  0  0  0  0  0
    4.1512   -0.6662   -3.4565 H   0  0  0  0  0  0  0  0  0  0  0  0
    6.4986    0.8104   -4.7790 H   0  0  0  0  0  0  0  0  0  0  0  0
    6.5851   -1.2533   -2.5519 H   0  0  0  0  0  0  0  0  0  0  0  0
    8.7680   -0.7388   -2.1719 H   0  0  0  0  0  0  0  0  0  0  0  0
    9.0146    0.3569   -3.5000 H   0  0  0  0  0  0  0  0  0  0  0  0
    9.8864   -2.4215   -2.9062 H   0  0  0  0  0  0  0  0  0  0  0  0
    8.4832   -2.1838   -5.5970 H   0  0  0  0  0  0  0  0  0  0  0  0
    7.9512   -3.0511   -4.1608 H   0  0  0  0  0  0  0  0  0  0  0  0
    9.3253   -3.6502   -5.0499 H   0  0  0  0  0  0  0  0  0  0  0  0
   11.3198   -1.6742   -5.5043 H   0  0  0  0  0  0  0  0  0  0  0  0
   11.4607    0.0586   -3.3112 H   0  0  0  0  0  0  0  0  0  0  0  0
   13.0797   -3.1453   -4.9698 H   0  0  0  0  0  0  0  0  0  0  0  0
   15.8028   -3.9317   -4.5647 H   0  0  0  0  0  0  0  0  0  0  0  0
   17.8482   -2.1476   -3.2738 H   0  0  0  0  0  0  0  0  0  0  0  0
   18.9243   -1.1992   -5.0516 H   0  0  0  0  0  0  0  0  0  0  0  0
   18.7039   -2.6113   -6.0907 H   0  0  0  0  0  0  0  0  0  0  0  0
   20.8434   -3.2330   -5.8846 H   0  0  0  0  0  0  0  0  0  0  0  0
   20.7923   -3.2870   -4.1248 H   0  0  0  0  0  0  0  0  0  0  0  0
   21.8728   -0.9536   -5.6781 H   0  0  0  0  0  0  0  0  0  0  0  0
   22.7311   -2.2815   -4.9307 H   0  0  0  0  0  0  0  0  0  0  0  0
   21.8576   -1.1900   -3.8957 H   0  0  0  0  0  0  0  0  0  0  0  0
   20.9585   -5.3500   -5.1659 H   0  0  0  0  0  0  0  0  0  0  0  0
   19.2682   -4.9775   -5.6551 H   0  0  0  0  0  0  0  0  0  0  0  0
   19.7225   -6.5952   -5.0674 H   0  0  0  0  0  0  0  0  0  0  0  0
   20.8723   -6.7730   -3.1425 H   0  0  0  0  0  0  0  0  0  0  0  0
   19.3496   -6.7031   -2.2850 H   0  0  0  0  0  0  0  0  0  0  0  0
   22.1117   -3.6796   -2.3642 H   0  0  0  0  0  0  0  0  0  0  0  0
   22.9831   -5.1117   -2.9858 H   0  0  0  0  0  0  0  0  0  0  0  0
   23.7597   -4.0311   -1.8125 H   0  0  0  0  0  0  0  0  0  0  0  0
   22.2760   -5.8437    0.9920 H   0  0  0  0  0  0  0  0  0  0  0  0
   23.5997   -3.7273    1.7413 H   0  0  0  0  0  0  0  0  0  0  0  0
   23.4527   -3.1355    0.1293 H   0  0  0  0  0  0  0  0  0  0  0  0
   20.9145   -3.2829    0.3280 H   0  0  0  0  0  0  0  0  0  0  0  0
   21.5678   -3.8137    3.2665 H   0  0  0  0  0  0  0  0  0  0  0  0
   20.7504   -4.9602    2.1779 H   0  0  0  0  0  0  0  0  0  0  0  0
   19.9879   -3.4645    2.6595 H   0  0  0  0  0  0  0  0  0  0  0  0
   22.3215   -1.5304    2.4092 H   0  0  0  0  0  0  0  0  0  0  0  0
   20.7121   -1.2608    1.7212 H   0  0  0  0  0  0  0  0  0  0  0  0
   22.1404   -1.1473    0.6862 H   0  0  0  0  0  0  0  0  0  0  0  0
   25.6798   -6.9733    1.3175 H   0  0  0  0  0  0  0  0  0  0  0  0
   22.9662   -7.9125    1.8433 H   0  0  0  0  0  0  0  0  0  0  0  0
   24.0149   -9.4843    3.3395 H   0  0  0  0  0  0  0  0  0  0  0  0
   25.5252   -8.5290    3.3916 H   0  0  0  0  0  0  0  0  0  0  0  0
   26.0258   -9.2223    1.0819 H   0  0  0  0  0  0  0  0  0  0  0  0
   24.4960  -10.1143    1.0045 H   0  0  0  0  0  0  0  0  0  0  0  0
   26.7455  -10.6146    3.0422 H   0  0  0  0  0  0  0  0  0  0  0  0
   26.4059  -11.6205    1.6228 H   0  0  0  0  0  0  0  0  0  0  0  0
   25.2325  -11.5257    2.9483 H   0  0  0  0  0  0  0  0  0  0  0  0
   24.5447   -8.7407    5.1388 H   0  0  0  0  0  0  0  0  0  0  0  0
   22.7997   -8.9284    5.4864 H   0  0  0  0  0  0  0  0  0  0  0  0
   23.9163   -8.0666    6.5850 H   0  0  0  0  0  0  0  0  0  0  0  0
   22.3217   -5.1790    5.1017 H   0  0  0  0  0  0  0  0  0  0  0  0
   23.3889   -4.5219    7.2727 H   0  0  0  0  0  0  0  0  0  0  0  0
   24.3957   -5.9423    7.1794 H   0  0  0  0  0  0  0  0  0  0  0  0
   25.3871   -5.1042    5.0281 H   0  0  0  0  0  0  0  0  0  0  0  0
   24.0180   -2.4212    5.6201 H   0  0  0  0  0  0  0  0  0  0  0  0
   23.4530   -3.4977    4.3624 H   0  0  0  0  0  0  0  0  0  0  0  0
   25.0719   -2.8374    4.2575 H   0  0  0  0  0  0  0  0  0  0  0  0
   25.5893   -3.1096    7.3385 H   0  0  0  0  0  0  0  0  0  0  0  0
   26.7977   -3.4018    6.0768 H   0  0  0  0  0  0  0  0  0  0  0  0
   26.4401   -4.6637    7.2675 H   0  0  0  0  0  0  0  0  0  0  0  0
   19.7415   -6.3496    7.2616 H   0  0  0  0  0  0  0  0  0  0  0  0
   20.3831   -5.1428    4.6696 H   0  0  0  0  0  0  0  0  0  0  0  0
   17.7307   -5.4023    6.0904 H   0  0  0  0  0  0  0  0  0  0  0  0
   18.3872   -6.4175    4.8233 H   0  0  0  0  0  0  0  0  0  0  0  0
   18.0245   -4.7489    4.4621 H   0  0  0  0  0  0  0  0  0  0  0  0
   19.9548   -1.6804    6.3338 H   0  0  0  0  0  0  0  0  0  0  0  0
   17.9272   -1.2641    6.8295 H   0  0  0  0  0  0  0  0  0  0  0  0
   18.0748   -4.1082    7.7349 H   0  0  0  0  0  0  0  0  0  0  0  0
   16.5222   -3.2613    7.7961 H   0  0  0  0  0  0  0  0  0  0  0  0
   17.9416   -2.6092    8.6193 H   0  0  0  0  0  0  0  0  0  0  0  0
   17.3147    0.1892    5.6616 H   0  0  0  0  0  0  0  0  0  0  0  0
   15.7475    0.0733    4.8520 H   0  0  0  0  0  0  0  0  0  0  0  0
   17.1993    0.6345    3.9640 H   0  0  0  0  0  0  0  0  0  0  0  0
   16.9087   -0.7939    2.3669 H   0  0  0  0  0  0  0  0  0  0  0  0
   17.6425   -3.6405    2.8222 H   0  0  0  0  0  0  0  0  0  0  0  0
   18.5009   -2.3088    2.1305 H   0  0  0  0  0  0  0  0  0  0  0  0
   15.9769   -3.2136    0.7124 H   0  0  0  0  0  0  0  0  0  0  0  0
   18.6031   -2.0031   -0.2494 H   0  0  0  0  0  0  0  0  0  0  0  0
   17.0922   -1.1207    0.0085 H   0  0  0  0  0  0  0  0  0  0  0  0
   17.1552   -2.3642   -1.2159 H   0  0  0  0  0  0  0  0  0  0  0  0
   18.7002   -4.5826    0.4963 H   0  0  0  0  0  0  0  0  0  0  0  0
   17.2373   -4.9170   -0.4826 H   0  0  0  0  0  0  0  0  0  0  0  0
   17.2546   -5.2680    1.2258 H   0  0  0  0  0  0  0  0  0  0  0  0
   15.8812   -4.3490    3.2671 H   0  0  0  0  0  0  0  0  0  0  0  0
   14.7532   -4.4463    1.9408 H   0  0  0  0  0  0  0  0  0  0  0  0
   14.2530   -4.9115    3.5858 H   0  0  0  0  0  0  0  0  0  0  0  0
   12.7278   -3.4983    4.1058 H   0  0  0  0  0  0  0  0  0  0  0  0
   12.5793   -0.5640    3.5635 H   0  0  0  0  0  0  0  0  0  0  0  0
   12.7328   -1.4354    5.0473 H   0  0  0  0  0  0  0  0  0  0  0  0
   10.3321   -1.7781    3.1526 H   0  0  0  0  0  0  0  0  0  0  0  0
   10.7578   -2.7051    6.0276 H   0  0  0  0  0  0  0  0  0  0  0  0
   10.5896   -3.7317    4.5923 H   0  0  0  0  0  0  0  0  0  0  0  0
    9.2221   -2.7737    5.1369 H   0  0  0  0  0  0  0  0  0  0  0  0
   10.5982   -0.0067    5.6165 H   0  0  0  0  0  0  0  0  0  0  0  0
    9.0962   -0.3435    4.7298 H   0  0  0  0  0  0  0  0  0  0  0  0
   10.4134    0.5222    3.9339 H   0  0  0  0  0  0  0  0  0  0  0  0
   11.7387   -0.7667    1.7839 H   0  0  0  0  0  0  0  0  0  0  0  0
   10.7437   -1.1897    0.4259 H   0  0  0  0  0  0  0  0  0  0  0  0
   12.4646   -0.6828    0.2056 H   0  0  0  0  0  0  0  0  0  0  0  0
   13.6457   -3.2162   -0.3503 H   0  0  0  0  0  0  0  0  0  0  0  0
   12.4189   -5.1562   -1.5334 H   0  0  0  0  0  0  0  0  0  0  0  0
   13.3497   -6.0098    1.0926 H   0  0  0  0  0  0  0  0  0  0  0  0
   14.3938   -5.2816   -0.1521 H   0  0  0  0  0  0  0  0  0  0  0  0
   13.4527   -6.7118   -0.5133 H   0  0  0  0  0  0  0  0  0  0  0  0
   10.5712   -5.3692    0.8411 H   0  0  0  0  0  0  0  0  0  0  0  0
   10.6909   -6.3490   -0.5964 H   0  0  0  0  0  0  0  0  0  0  0  0
   10.1326   -4.6736   -0.6950 H   0  0  0  0  0  0  0  0  0  0  0  0
   12.0130   -5.3524   -3.4623 H   0  0  0  0  0  0  0  0  0  0  0  0
   11.2151   -4.1394   -4.4177 H   0  0  0  0  0  0  0  0  0  0  0  0
   10.6857   -4.3753   -2.7569 H   0  0  0  0  0  0  0  0  0  0  0  0
  1  2  1  0  0  0  0
  1 87  1  0  0  0  0
  1 88  1  0  0  0  0
  1 89  1  0  0  0  0
  2  3  2  0  0  0  0
  2 90  1  0  0  0  0
  3  4  1  0  0  0  0
  3 91  1  0  0  0  0
  4  5  1  0  0  0  0
  4 92  1  0  0  0  0
  4 93  1  0  0  0  0
  5  6  1  0  0  0  0
  5  7  1  0  0  0  0
  5 94  1  1  0  0  0
  6 95  1  0  0  0  0
  6 96  1  0  0  0  0
  6 97  1  0  0  0  0
  7  8  1  0  0  0  0
  7  9  1  0  0  0  0
  7 98  1  6  0  0  0
  8 99  1  0  0  0  0
  9 10  1  0  0  0  0
  9 85  1  0  0  0  0
  9100  1  6  0  0  0
 10 11  2  0  0  0  0
 10 12  1  0  0  0  0
 12 13  1  0  0  0  0
 12101  1  0  0  0  0
 13 14  1  0  0  0  0
 13 17  1  0  0  0  0
 13102  1  6  0  0  0
 14 15  1  0  0  0  0
 14103  1  0  0  0  0
 14104  1  0  0  0  0
 15 16  1  0  0  0  0
 15105  1  0  0  0  0
 15106  1  0  0  0  0
 16107  1  0  0  0  0
 16108  1  0  0  0  0
 16109  1  0  0  0  0
 17 18  2  0  0  0  0
 17 19  1  0  0  0  0
 19 20  1  0  0  0  0
 19 21  1  0  0  0  0
 20110  1  0  0  0  0
 20111  1  0  0  0  0
 20112  1  0  0  0  0
 21 22  1  0  0  0  0
 21113  1  0  0  0  0
 21114  1  0  0  0  0
 22 23  2  0  0  0  0
 22 24  1  0  0  0  0
 24 25  1  0  0  0  0
 24 26  1  0  0  0  0
 25115  1  0  0  0  0
 25116  1  0  0  0  0
 25117  1  0  0  0  0
 26 31  1  0  0  0  0
 26 27  1  0  0  0  0
 26118  1  1  0  0  0
 27 28  1  0  0  0  0
 27119  1  0  0  0  0
 27120  1  0  0  0  0
 28 29  1  0  0  0  0
 28 30  1  0  0  0  0
 28121  1  0  0  0  0
 29122  1  0  0  0  0
 29123  1  0  0  0  0
 29124  1  0  0  0  0
 30125  1  0  0  0  0
 30126  1  0  0  0  0
 30127  1  0  0  0  0
 31 32  2  0  0  0  0
 31 33  1  0  0  0  0
 33 34  1  0  0  0  0
 33128  1  0  0  0  0
 34 35  1  0  0  0  0
 34 38  1  0  0  0  0
 34129  1  6  0  0  0
 35 36  1  0  0  0  0
 35130  1  0  0  0  0
 35131  1  0  0  0  0
 36 37  1  0  0  0  0
 36132  1  0  0  0  0
 36133  1  0  0  0  0
 37134  1  0  0  0  0
 37135  1  0  0  0  0
 37136  1  0  0  0  0
 38 39  2  0  0  0  0
 38 40  1  0  0  0  0
 40 41  1  0  0  0  0
 40 42  1  0  0  0  0
 41137  1  0  0  0  0
 41138  1  0  0  0  0
 41139  1  0  0  0  0
 42 47  1  0  0  0  0
 42 43  1  0  0  0  0
 42140  1  6  0  0  0
 43 44  1  0  0  0  0
 43141  1  0  0  0  0
 43142  1  0  0  0  0
 44 45  1  0  0  0  0
 44 46  1  0  0  0  0
 44143  1  0  0  0  0
 45144  1  0  0  0  0
 45145  1  0  0  0  0
 45146  1  0  0  0  0
 46147  1  0  0  0  0
 46148  1  0  0  0  0
 46149  1  0  0  0  0
 47 48  2  0  0  0  0
 47 49  1  0  0  0  0
 49 50  1  0  0  0  0
 49150  1  0  0  0  0
 50 51  1  0  0  0  0
 50 52  1  0  0  0  0
 50151  1  0  0  0  0
 51152  1  0  0  0  0
 51153  1  0  0  0  0
 51154  1  0  0  0  0
 52 53  2  0  0  0  0
 52 54  1  0  0  0  0
 54 55  1  0  0  0  0
 54155  1  0  0  0  0
 55 57  1  0  0  0  0
 55 56  1  0  0  0  0
 55156  1  1  0  0  0
 56157  1  0  0  0  0
 56158  1  0  0  0  0
 56159  1  0  0  0  0
 57 58  2  0  0  0  0
 57 59  1  0  0  0  0
 59 60  1  0  0  0  0
 59 61  1  0  0  0  0
 60160  1  0  0  0  0
 60161  1  0  0  0  0
 60162  1  0  0  0  0
 61 62  1  0  0  0  0
 61 66  1  0  0  0  0
 61163  1  6  0  0  0
 62 63  1  0  0  0  0
 62164  1  0  0  0  0
 62165  1  0  0  0  0
 63 64  1  0  0  0  0
 63 65  1  0  0  0  0
 63166  1  0  0  0  0
 64167  1  0  0  0  0
 64168  1  0  0  0  0
 64169  1  0  0  0  0
 65170  1  0  0  0  0
 65171  1  0  0  0  0
 65172  1  0  0  0  0
 66 67  2  0  0  0  0
 66 68  1  0  0  0  0
 68 69  1  0  0  0  0
 68 70  1  0  0  0  0
 69173  1  0  0  0  0
 69174  1  0  0  0  0
 69175  1  0  0  0  0
 70 71  1  0  0  0  0
 70 75  1  0  0  0  0
 70176  1  1  0  0  0
 71 72  1  0  0  0  0
 71177  1  0  0  0  0
 71178  1  0  0  0  0
 72 73  1  0  0  0  0
 72 74  1  0  0  0  0
 72179  1  0  0  0  0
 73180  1  0  0  0  0
 73181  1  0  0  0  0
 73182  1  0  0  0  0
 74183  1  0  0  0  0
 74184  1  0  0  0  0
 74185  1  0  0  0  0
 75 76  2  0  0  0  0
 75 77  1  0  0  0  0
 77 78  1  0  0  0  0
 77 79  1  0  0  0  0
 78186  1  0  0  0  0
 78187  1  0  0  0  0
 78188  1  0  0  0  0
 79 80  1  0  0  0  0
 79 83  1  0  0  0  0
 79189  1  1  0  0  0
 80 81  1  0  0  0  0
 80 82  1  0  0  0  0
 80190  1  0  0  0  0
 81191  1  0  0  0  0
 81192  1  0  0  0  0
 81193  1  0  0  0  0
 82194  1  0  0  0  0
 82195  1  0  0  0  0
 82196  1  0  0  0  0
 83 84  2  0  0  0  0
 83 85  1  0  0  0  0
 85 86  1  0  0  0  0
 86197  1  0  0  0  0
 86198  1  0  0  0  0
 86199  1  0  0  0  0
M  END
>  <Energy>
703.47

$$$$