44265030
  -OEChem-03242010103D

 72 73  0     1  0  0  0  0  0999 V2000
   -0.8924   -1.4719   -0.4894 O   0  0  0  0  0  0  0  0  0  0  0  0
    1.8453   -1.2609    1.4801 O   0  0  0  0  0  0  0  0  0  0  0  0
    2.2661   -0.9034   -3.7388 O   0  0  0  0  0  0  0  0  0  0  0  0
   -0.1652   -3.4651   -1.3978 O   0  0  0  0  0  0  0  0  0  0  0  0
    4.9650   -0.7015    0.9222 O   0  0  0  0  0  0  0  0  0  0  0  0
    0.1262   -0.0637    2.4486 O   0  0  0  0  0  0  0  0  0  0  0  0
    3.5289   -0.3536   -0.8662 N   0  0  0  0  0  0  0  0  0  0  0  0
    2.1679   -0.1123   -1.4304 C   0  0  2  0  0  0  0  0  0  0  0  0
   -1.3962   -2.1188    0.7040 C   0  0  2  0  0  0  0  0  0  0  0  0
    1.7545   -1.2129   -2.4432 C   0  0  1  0  0  0  0  0  0  0  0  0
   -2.5393   -1.2510    1.2236 C   0  0  0  0  0  0  0  0  0  0  0  0
   -0.2394   -2.3509    1.7015 C   0  0  2  0  0  0  0  0  0  0  0  0
   -3.6082   -1.0471    0.1521 C   0  0  0  0  0  0  0  0  0  0  0  0
    2.0592    1.3145   -1.9800 C   0  0  0  0  0  0  0  0  0  0  0  0
    0.2354   -1.3840   -2.5528 C   0  0  0  0  0  0  0  0  0  0  0  0
   -4.7851   -0.1907    0.6282 C   0  0  0  0  0  0  0  0  0  0  0  0
   -5.8232    0.0780   -0.4636 C   0  0  0  0  0  0  0  0  0  0  0  0
   -0.2959   -2.2485   -1.4353 C   0  0  0  0  0  0  0  0  0  0  0  0
    3.8358   -0.4222    0.5040 C   0  0  0  0  0  0  0  0  0  0  0  0
   -0.6907   -2.9256    3.0401 C   0  0  0  0  0  0  0  0  0  0  0  0
    0.5696   -1.0840    1.9387 C   0  0  0  0  0  0  0  0  0  0  0  0
    2.7164   -0.1173    1.5020 C   0  0  2  0  0  0  0  0  0  0  0  0
    1.9031    2.3136   -0.8720 C   0  0  0  0  0  0  0  0  0  0  0  0
   -6.9624    0.9561    0.0597 C   0  0  0  0  0  0  0  0  0  0  0  0
    4.6249   -0.5515   -1.8173 C   0  0  0  0  0  0  0  0  0  0  0  0
   -7.9816    1.2580   -1.0388 C   0  0  0  0  0  0  0  0  0  0  0  0
    3.2677    0.0724    2.9135 C   0  0  0  0  0  0  0  0  0  0  0  0
    0.6301    2.6620   -0.4212 C   0  0  0  0  0  0  0  0  0  0  0  0
    3.0314    2.8942   -0.2926 C   0  0  0  0  0  0  0  0  0  0  0  0
   -9.1321    2.1021   -0.5144 C   0  0  0  0  0  0  0  0  0  0  0  0
    0.4851    3.5911    0.6091 C   0  0  0  0  0  0  0  0  0  0  0  0
    2.8863    3.8233    0.7376 C   0  0  0  0  0  0  0  0  0  0  0  0
    1.6131    4.1717    1.1886 C   0  0  0  0  0  0  0  0  0  0  0  0
    1.4594   -0.2005   -0.6086 H   0  0  0  0  0  0  0  0  0  0  0  0
   -1.8196   -3.0943    0.4279 H   0  0  0  0  0  0  0  0  0  0  0  0
    2.1999   -2.1684   -2.1386 H   0  0  0  0  0  0  0  0  0  0  0  0
   -2.9972   -1.7083    2.1072 H   0  0  0  0  0  0  0  0  0  0  0  0
   -2.1700   -0.2623    1.5159 H   0  0  0  0  0  0  0  0  0  0  0  0
    0.4399   -3.0848    1.2465 H   0  0  0  0  0  0  0  0  0  0  0  0
   -3.1701   -0.5636   -0.7294 H   0  0  0  0  0  0  0  0  0  0  0  0
   -3.9876   -2.0224   -0.1772 H   0  0  0  0  0  0  0  0  0  0  0  0
    1.1858    1.4022   -2.6387 H   0  0  0  0  0  0  0  0  0  0  0  0
    2.9151    1.5887   -2.6069 H   0  0  0  0  0  0  0  0  0  0  0  0
   -0.0394   -1.8741   -3.4952 H   0  0  0  0  0  0  0  0  0  0  0  0
   -0.2858   -0.4203   -2.5703 H   0  0  0  0  0  0  0  0  0  0  0  0
   -5.2701   -0.6882    1.4771 H   0  0  0  0  0  0  0  0  0  0  0  0
   -4.4008    0.7673    1.0005 H   0  0  0  0  0  0  0  0  0  0  0  0
   -6.2267   -0.8741   -0.8286 H   0  0  0  0  0  0  0  0  0  0  0  0
   -5.3386    0.5722   -1.3143 H   0  0  0  0  0  0  0  0  0  0  0  0
   -1.2829   -2.2070    3.6162 H   0  0  0  0  0  0  0  0  0  0  0  0
    0.1777   -3.1878    3.6549 H   0  0  0  0  0  0  0  0  0  0  0  0
   -1.2883   -3.8313    2.8957 H   0  0  0  0  0  0  0  0  0  0  0  0
    2.1746    0.7803    1.2170 H   0  0  0  0  0  0  0  0  0  0  0  0
   -6.5544    1.8971    0.4484 H   0  0  0  0  0  0  0  0  0  0  0  0
   -7.4600    0.4498    0.8959 H   0  0  0  0  0  0  0  0  0  0  0  0
    4.5274   -1.5430   -2.2678 H   0  0  0  0  0  0  0  0  0  0  0  0
    5.6002   -0.4962   -1.3262 H   0  0  0  0  0  0  0  0  0  0  0  0
    4.5958    0.2135   -2.5957 H   0  0  0  0  0  0  0  0  0  0  0  0
    2.0595   -1.6522   -4.3238 H   0  0  0  0  0  0  0  0  0  0  0  0
   -8.3804    0.3209   -1.4444 H   0  0  0  0  0  0  0  0  0  0  0  0
   -7.4928    1.7874   -1.8650 H   0  0  0  0  0  0  0  0  0  0  0  0
    3.7399   -0.8461    3.2800 H   0  0  0  0  0  0  0  0  0  0  0  0
    2.4677    0.3150    3.6200 H   0  0  0  0  0  0  0  0  0  0  0  0
    4.0070    0.8792    2.9439 H   0  0  0  0  0  0  0  0  0  0  0  0
   -0.2568    2.2129   -0.8608 H   0  0  0  0  0  0  0  0  0  0  0  0
    4.0292    2.6349   -0.6361 H   0  0  0  0  0  0  0  0  0  0  0  0
   -8.7711    3.0607   -0.1284 H   0  0  0  0  0  0  0  0  0  0  0  0
   -9.6630    1.5849    0.2912 H   0  0  0  0  0  0  0  0  0  0  0  0
   -9.8483    2.3068   -1.3164 H   0  0  0  0  0  0  0  0  0  0  0  0
   -0.5062    3.8607    0.9615 H   0  0  0  0  0  0  0  0  0  0  0  0
    3.7647    4.2751    1.1889 H   0  0  0  0  0  0  0  0  0  0  0  0
    1.5003    4.8943    1.9913 H   0  0  0  0  0  0  0  0  0  0  0  0
  1  9  1  0  0  0  0
  1 18  1  0  0  0  0
  2 21  1  0  0  0  0
  2 22  1  0  0  0  0
  3 10  1  0  0  0  0
  3 59  1  0  0  0  0
  4 18  2  0  0  0  0
  5 19  2  0  0  0  0
  6 21  2  0  0  0  0
  7  8  1  0  0  0  0
  7 19  1  0  0  0  0
  7 25  1  0  0  0  0
  8 10  1  0  0  0  0
  8 14  1  0  0  0  0
  8 34  1  0  0  0  0
  9 11  1  0  0  0  0
  9 12  1  0  0  0  0
  9 35  1  0  0  0  0
 10 15  1  0  0  0  0
 10 36  1  0  0  0  0
 11 13  1  0  0  0  0
 11 37  1  0  0  0  0
 11 38  1  0  0  0  0
 12 20  1  0  0  0  0
 12 21  1  0  0  0  0
 12 39  1  0  0  0  0
 13 16  1  0  0  0  0
 13 40  1  0  0  0  0
 13 41  1  0  0  0  0
 14 23  1  0  0  0  0
 14 42  1  0  0  0  0
 14 43  1  0  0  0  0
 15 18  1  0  0  0  0
 15 44  1  0  0  0  0
 15 45  1  0  0  0  0
 16 17  1  0  0  0  0
 16 46  1  0  0  0  0
 16 47  1  0  0  0  0
 17 24  1  0  0  0  0
 17 48  1  0  0  0  0
 17 49  1  0  0  0  0
 19 22  1  0  0  0  0
 20 50  1  0  0  0  0
 20 51  1  0  0  0  0
 20 52  1  0  0  0  0
 22 27  1  0  0  0  0
 22 53  1  0  0  0  0
 23 28  2  0  0  0  0
 23 29  1  0  0  0  0
 24 26  1  0  0  0  0
 24 54  1  0  0  0  0
 24 55  1  0  0  0  0
 25 56  1  0  0  0  0
 25 57  1  0  0  0  0
 25 58  1  0  0  0  0
 26 30  1  0  0  0  0
 26 60  1  0  0  0  0
 26 61  1  0  0  0  0
 27 62  1  0  0  0  0
 27 63  1  0  0  0  0
 27 64  1  0  0  0  0
 28 31  1  0  0  0  0
 28 65  1  0  0  0  0
 29 32  2  0  0  0  0
 29 66  1  0  0  0  0
 30 67  1  0  0  0  0
 30 68  1  0  0  0  0
 30 69  1  0  0  0  0
 31 33  2  0  0  0  0
 31 70  1  0  0  0  0
 32 33  1  0  0  0  0
 32 71  1  0  0  0  0
 33 72  1  0  0  0  0
M  END
> <PUBCHEM_COMPOUND_CID>
44265030

> <PUBCHEM_CONFORMER_RMSD>
1

> <PUBCHEM_CONFORMER_DIVERSEORDER>
1
119
24
73
66
76
85
94
124
69
107
45
53
97
104
125
111
11
131
18
87
100
106
110
75
103
37
127
60
32
112
91
49
132
61
14
13
126
62
79
44
93
113
48
36
83
99
38
31
88
98
55
108
30
101
4
89
56
129
70
46
120
21
78
50
71
10
43
96
6
72
29
15
74
52
122
114
42
128
59
63
86
80
102
40
123
28
27
39
19
81
54
109
92
41
117
115
23
77
12
22
82
95
68
26
25
130
116
84
90
20
8
5
9
16
2
47
35
121
64
65
34
105
118
51
67
33
7
17
58
3
57

> <PUBCHEM_MMFF94_PARTIAL_CHARGES>
30
1 -0.43
10 0.28
12 0.06
14 0.14
15 0.06
18 0.66
19 0.57
2 -0.43
21 0.66
22 0.34
23 -0.14
25 0.3
28 -0.15
29 -0.15
3 -0.68
31 -0.15
32 -0.15
33 -0.15
4 -0.57
5 -0.57
59 0.4
6 -0.57
65 0.15
66 0.15
7 -0.66
70 0.15
71 0.15
72 0.15
8 0.3
9 0.28

> <PUBCHEM_EFFECTIVE_ROTOR_COUNT>
9.8

> <PUBCHEM_PHARMACOPHORE_FEATURES>
9
1 3 acceptor
1 3 donor
1 30 hydrophobe
1 4 acceptor
1 5 acceptor
1 6 acceptor
3 11 13 16 hydrophobe
3 17 24 26 hydrophobe
6 23 28 29 31 32 33 rings

> <PUBCHEM_HEAVY_ATOM_COUNT>
33

> <PUBCHEM_ATOM_DEF_STEREO_COUNT>
5

> <PUBCHEM_ATOM_UDEF_STEREO_COUNT>
0

> <PUBCHEM_BOND_DEF_STEREO_COUNT>
0

> <PUBCHEM_BOND_UDEF_STEREO_COUNT>
0

> <PUBCHEM_ISOTOPIC_ATOM_COUNT>
0

> <PUBCHEM_COMPONENT_COUNT>
1

> <PUBCHEM_CACTVS_TAUTO_COUNT>
8

> <PUBCHEM_CONFORMER_ID>
02A36E4600000001

> <PUBCHEM_MMFF94_ENERGY>
65.4238

> <PUBCHEM_FEATURE_SELFOVERLAP>
45.685

> <PUBCHEM_SHAPE_FINGERPRINT>
11578080 2 17533229802081772532
11828532 37 18334585676590648795
11966995 178 18337956685317028029
12156800 1 17545329579637765806
12166972 35 17417271908181075094
12778500 126 17022905614707577805
131258 38 17458891704388812154
13583140 156 17833573540617820258
15219462 58 17611752601299716794
15238133 3 18041000678452861306
17974551 9 17969225714479773602
20715895 44 18273216400404651183
24893992 56 18040721360251145433
35225 105 17903326270895225312
4066623 53 17841996590007760359
5080951 261 14891099747972593652
513532 50 18341609360420304065
57527306 92 18411130321198420504
57527452 28 17023182657420749874
57527573 199 17972596855822624972
5951187 136 18410576193387516877

> <PUBCHEM_SHAPE_MULTIPOLES>
638.93
13.44
4.4
3.06
45.88
3.59
0.6
9.67
2.96
-1.58
-1.45
-3.15
-2.04
1.47

> <PUBCHEM_SHAPE_SELFOVERLAP>
1289.758

> <PUBCHEM_SHAPE_VOLUME>
371

> <PUBCHEM_COORDINATE_TYPE>
2
5
10

$$$$