65
 OpenBabel03292021513D

197197  0  0  1  0  0  0  0  0999 V2000
    1.7149    0.1718   -3.7992 C   0  0  0  0  0  0  0  0  0  0  0  0
    3.0251    0.7958   -3.4520 C   0  0  0  0  0  0  0  0  0  0  0  0
    3.1372    1.9986   -2.8652 C   0  0  0  0  0  0  0  0  0  0  0  0
    4.4438    2.5506   -2.3598 C   0  0  0  0  0  0  0  0  0  0  0  0
    4.5532    2.5023   -0.8102 C   0  0  1  0  0  0  0  0  0  0  0  0
    4.2275    1.0886   -0.2766 C   0  0  0  0  0  0  0  0  0  0  0  0
    5.9644    2.8641   -0.2980 C   0  0  1  0  0  0  0  0  0  0  0  0
    6.8301    1.8593   -0.9124 O   0  0  0  0  0  0  0  0  0  0  0  0
    6.5469    4.2972   -0.5774 C   0  0  1  0  0  0  0  0  0  0  0  0
    5.3840    5.6007   -0.0470 C   0  0  0  0  0  0  0  0  0  0  0  0
    4.2862    5.5828   -0.6498 O   0  0  0  0  0  0  0  0  0  0  0  0
    5.2828    6.4000    1.1270 N   0  0  0  0  0  0  0  0  0  0  0  0
    5.6578    7.9515    1.4318 C   0  0  1  0  0  0  0  0  0  0  0  0
    5.7864    8.4936    2.9475 C   0  0  1  0  0  0  0  0  0  0  0  0
    6.4618    9.8994    3.1144 C   0  0  0  0  0  0  0  0  0  0  0  0
    4.5612    8.5147    3.6738 O   0  0  0  0  0  0  0  0  0  0  0  0
    7.0431    8.2049    0.9661 C   0  0  0  0  0  0  0  0  0  0  0  0
    7.3872    9.2723    0.4623 O   0  0  0  0  0  0  0  0  0  0  0  0
    7.9424    7.1925    1.2106 N   0  0  0  0  0  0  0  0  0  0  0  0
    7.7648    6.1152    2.2370 C   0  0  0  0  0  0  0  0  0  0  0  0
    8.4466    6.8029   -0.0646 C   0  0  0  0  0  0  0  0  0  0  0  0
    7.8928    7.2639   -1.4561 C   0  0  0  0  0  0  0  0  0  0  0  0
    6.9174    6.7590   -1.9742 O   0  0  0  0  0  0  0  0  0  0  0  0
    8.6172    8.2608   -2.0705 N   0  0  0  0  0  0  0  0  0  0  0  0
    9.6539    8.9497   -1.3051 C   0  0  0  0  0  0  0  0  0  0  0  0
    8.2891    8.5841   -3.5057 C   0  0  2  0  0  0  0  0  0  0  0  0
    9.3078    9.5697   -4.1343 C   0  0  0  0  0  0  0  0  0  0  0  0
    9.5631   10.9400   -3.4474 C   0  0  0  0  0  0  0  0  0  0  0  0
   10.8337   11.6074   -3.9600 C   0  0  0  0  0  0  0  0  0  0  0  0
    8.3521   11.8541   -3.4187 C   0  0  0  0  0  0  0  0  0  0  0  0
    6.8059    8.9905   -3.8821 C   0  0  0  0  0  0  0  0  0  0  0  0
    6.0614    9.5637   -3.0798 O   0  0  0  0  0  0  0  0  0  0  0  0
    6.3174    8.8852   -5.1842 N   0  0  0  0  0  0  0  0  0  0  0  0
    6.1100    7.6197   -5.9638 C   0  0  1  0  0  0  0  0  0  0  0  0
    4.7892    7.6436   -6.7575 C   0  0  0  0  0  0  0  0  0  0  0  0
    3.4137    7.6456   -6.0685 C   0  0  0  0  0  0  0  0  0  0  0  0
    2.3333    7.6397   -7.1716 C   0  0  0  0  0  0  0  0  0  0  0  0
    3.1934    6.4498   -5.1507 C   0  0  0  0  0  0  0  0  0  0  0  0
    7.3505    7.2319   -6.8716 C   0  0  0  0  0  0  0  0  0  0  0  0
    8.3040    6.6976   -6.2826 O   0  0  0  0  0  0  0  0  0  0  0  0
    7.5035    7.6073   -8.2231 N   0  0  0  0  0  0  0  0  0  0  0  0
    6.4676    7.5307   -9.2619 C   0  0  0  0  0  0  0  0  0  0  0  0
    8.8980    7.5441   -8.7631 C   0  0  2  0  0  0  0  0  0  0  0  0
    9.2686    8.7953   -9.5998 C   0  0  0  0  0  0  0  0  0  0  0  0
    9.0937   10.1324   -8.8596 C   0  0  0  0  0  0  0  0  0  0  0  0
   10.0485   10.2557   -7.6765 C   0  0  0  0  0  0  0  0  0  0  0  0
    9.3317   11.2972   -9.8206 C   0  0  0  0  0  0  0  0  0  0  0  0
    9.1940    6.3050   -9.6598 C   0  0  0  0  0  0  0  0  0  0  0  0
    8.4884    6.0080  -10.6295 O   0  0  0  0  0  0  0  0  0  0  0  0
   10.3115    5.5442   -9.4621 N   0  0  0  0  0  0  0  0  0  0  0  0
   11.0727    5.3991   -8.2245 C   0  0  1  0  0  0  0  0  0  0  0  0
   11.3046    3.9283   -7.9530 C   0  0  0  0  0  0  0  0  0  0  0  0
   12.2173    6.4489   -8.0958 C   0  0  0  0  0  0  0  0  0  0  0  0
   11.9248    7.6548   -8.1275 O   0  0  0  0  0  0  0  0  0  0  0  0
   13.5416    6.2309   -7.9340 N   0  0  0  0  0  0  0  0  0  0  0  0
   14.4528    5.0917   -8.1004 C   0  0  2  0  0  0  0  0  0  0  0  0
   14.2909    4.4324   -9.4623 C   0  0  0  0  0  0  0  0  0  0  0  0
   14.4722    4.1202   -6.8843 C   0  0  0  0  0  0  0  0  0  0  0  0
   14.1019    2.9502   -6.9855 O   0  0  0  0  0  0  0  0  0  0  0  0
   14.8409    4.6844   -5.6531 N   0  0  0  0  0  0  0  0  0  0  0  0
   16.1717    5.2662   -5.5237 C   0  0  0  0  0  0  0  0  0  0  0  0
   14.2527    4.1036   -4.4132 C   0  0  1  0  0  0  0  0  0  0  0  0
   12.7405    4.2471   -4.4458 C   0  0  0  0  0  0  0  0  0  0  0  0
   12.1594    5.6597   -4.5504 C   0  0  0  0  0  0  0  0  0  0  0  0
   10.6500    5.4792   -4.6263 C   0  0  0  0  0  0  0  0  0  0  0  0
   12.5190    6.5281   -3.3453 C   0  0  0  0  0  0  0  0  0  0  0  0
   14.8253    2.7027   -4.0361 C   0  0  0  0  0  0  0  0  0  0  0  0
   16.0492    2.5095   -4.1213 O   0  0  0  0  0  0  0  0  0  0  0  0
   14.1157    1.6688   -3.4995 N   0  0  0  0  0  0  0  0  0  0  0  0
   12.6741    1.3637   -3.2430 C   0  0  1  0  0  0  0  0  0  0  0  0
   12.4867   -0.1625   -3.3371 C   0  0  0  0  0  0  0  0  0  0  0  0
   12.9440   -0.9131   -4.6258 C   0  0  0  0  0  0  0  0  0  0  0  0
   14.4487   -0.9415   -4.9011 C   0  0  0  0  0  0  0  0  0  0  0  0
   12.4530   -2.3691   -4.5312 C   0  0  0  0  0  0  0  0  0  0  0  0
   12.2777    2.1643   -1.8967 C   0  0  0  0  0  0  0  0  0  0  0  0
   13.0451    3.1015   -1.6336 O   0  0  0  0  0  0  0  0  0  0  0  0
   11.0734    2.0543   -1.1594 N   0  0  0  0  0  0  0  0  0  0  0  0
   10.4563    0.7415   -0.9554 C   0  0  0  0  0  0  0  0  0  0  0  0
   10.6802    3.0192    0.0005 C   0  0  1  0  0  0  0  0  0  0  0  0
   11.6034    4.2813    0.2240 C   0  0  0  0  0  0  0  0  0  0  0  0
   11.0786    5.2850    1.2347 C   0  0  0  0  0  0  0  0  0  0  0  0
   13.0293    3.9861    0.7568 C   0  0  0  0  0  0  0  0  0  0  0  0
    9.0246    3.3241    0.2201 C   0  0  0  0  0  0  0  0  0  0  0  0
    8.5260    3.0392    1.3177 O   0  0  0  0  0  0  0  0  0  0  0  0
    8.2108    3.9752   -0.7455 N   0  0  0  0  0  0  0  0  0  0  0  0
    8.8448    4.3532   -1.9972 C   0  0  0  0  0  0  0  0  0  0  0  0
    1.8580   -0.6088   -4.5526 H   0  0  0  0  0  0  0  0  0  0  0  0
    1.0081    0.9046   -4.1981 H   0  0  0  0  0  0  0  0  0  0  0  0
    1.2827   -0.2969   -2.9088 H   0  0  0  0  0  0  0  0  0  0  0  0
    3.9133    0.1909   -3.6230 H   0  0  0  0  0  0  0  0  0  0  0  0
    2.2484    2.5907   -2.6584 H   0  0  0  0  0  0  0  0  0  0  0  0
    4.5344    3.5844   -2.7134 H   0  0  0  0  0  0  0  0  0  0  0  0
    5.2733    2.0015   -2.8244 H   0  0  0  0  0  0  0  0  0  0  0  0
    3.8170    3.1850   -0.3760 H   0  0  0  0  0  0  0  0  0  0  0  0
    4.8497    0.3225   -0.7549 H   0  0  0  0  0  0  0  0  0  0  0  0
    3.1798    0.8254   -0.4427 H   0  0  0  0  0  0  0  0  0  0  0  0
    4.4046    1.0356    0.8030 H   0  0  0  0  0  0  0  0  0  0  0  0
    6.0167    2.6971    0.7816 H   0  0  0  0  0  0  0  0  0  0  0  0
    7.4352    2.3492   -1.4983 H   0  0  0  0  0  0  0  0  0  0  0  0
    6.3543    4.4378   -1.6513 H   0  0  0  0  0  0  0  0  0  0  0  0
    4.2683    6.5160    1.1349 H   0  0  0  0  0  0  0  0  0  0  0  0
    4.9460    8.5732    0.8721 H   0  0  0  0  0  0  0  0  0  0  0  0
    6.4173    7.8302    3.5300 H   0  0  0  0  0  0  0  0  0  0  0  0
    6.0145   10.4997    3.9145 H   0  0  0  0  0  0  0  0  0  0  0  0
    6.4181   10.5153    2.2106 H   0  0  0  0  0  0  0  0  0  0  0  0
    7.5281    9.7856    3.3657 H   0  0  0  0  0  0  0  0  0  0  0  0
    4.8126    8.7540    4.5909 H   0  0  0  0  0  0  0  0  0  0  0  0
    7.6722    6.5256    3.2361 H   0  0  0  0  0  0  0  0  0  0  0  0
    8.6102    5.4483    2.2863 H   0  0  0  0  0  0  0  0  0  0  0  0
    6.9181    5.4561    2.0559 H   0  0  0  0  0  0  0  0  0  0  0  0
    8.1352    5.8022   -0.0365 H   0  0  0  0  0  0  0  0  0  0  0  0
    9.5265    6.7408   -0.0674 H   0  0  0  0  0  0  0  0  0  0  0  0
   10.5781    8.9929   -1.8816 H   0  0  0  0  0  0  0  0  0  0  0  0
    9.2521    9.9087   -0.9782 H   0  0  0  0  0  0  0  0  0  0  0  0
    9.9459    8.4931   -0.3629 H   0  0  0  0  0  0  0  0  0  0  0  0
    8.4073    7.6181   -4.0064 H   0  0  0  0  0  0  0  0  0  0  0  0
   10.2651    9.0344   -4.1992 H   0  0  0  0  0  0  0  0  0  0  0  0
    8.9938    9.7682   -5.1592 H   0  0  0  0  0  0  0  0  0  0  0  0
    9.8257   10.8358   -2.4096 H   0  0  0  0  0  0  0  0  0  0  0  0
   10.7436   11.9374   -4.9928 H   0  0  0  0  0  0  0  0  0  0  0  0
   11.6817   10.9154   -3.8729 H   0  0  0  0  0  0  0  0  0  0  0  0
   11.0764   12.4712   -3.3283 H   0  0  0  0  0  0  0  0  0  0  0  0
    7.9334   12.0027   -4.4150 H   0  0  0  0  0  0  0  0  0  0  0  0
    8.6144   12.8270   -2.9911 H   0  0  0  0  0  0  0  0  0  0  0  0
    7.5799   11.4382   -2.7644 H   0  0  0  0  0  0  0  0  0  0  0  0
    5.4529    9.4137   -5.1672 H   0  0  0  0  0  0  0  0  0  0  0  0
    6.0373    6.8118   -5.2241 H   0  0  0  0  0  0  0  0  0  0  0  0
    4.7896    6.7652   -7.4166 H   0  0  0  0  0  0  0  0  0  0  0  0
    4.7972    8.5604   -7.3580 H   0  0  0  0  0  0  0  0  0  0  0  0
    3.2993    8.5677   -5.4880 H   0  0  0  0  0  0  0  0  0  0  0  0
    2.4035    6.7373   -7.7925 H   0  0  0  0  0  0  0  0  0  0  0  0
    2.4436    8.5036   -7.8373 H   0  0  0  0  0  0  0  0  0  0  0  0
    1.3254    7.6729   -6.7462 H   0  0  0  0  0  0  0  0  0  0  0  0
    3.3265    5.5046   -5.6880 H   0  0  0  0  0  0  0  0  0  0  0  0
    2.1738    6.4619   -4.7481 H   0  0  0  0  0  0  0  0  0  0  0  0
    3.8841    6.4693   -4.3042 H   0  0  0  0  0  0  0  0  0  0  0  0
    5.4944    7.8927   -8.9729 H   0  0  0  0  0  0  0  0  0  0  0  0
    6.3512    6.4883   -9.5730 H   0  0  0  0  0  0  0  0  0  0  0  0
    6.7444    8.1422  -10.1231 H   0  0  0  0  0  0  0  0  0  0  0  0
    9.5712    7.5283   -7.9128 H   0  0  0  0  0  0  0  0  0  0  0  0
   10.3087    8.7016   -9.9392 H   0  0  0  0  0  0  0  0  0  0  0  0
    8.6776    8.8176  -10.5237 H   0  0  0  0  0  0  0  0  0  0  0  0
    8.0642   10.2089   -8.4889 H   0  0  0  0  0  0  0  0  0  0  0  0
   11.0929   10.2687   -8.0027 H   0  0  0  0  0  0  0  0  0  0  0  0
    9.9321    9.4213   -6.9842 H   0  0  0  0  0  0  0  0  0  0  0  0
    9.8542   11.1792   -7.1226 H   0  0  0  0  0  0  0  0  0  0  0  0
   10.3498   11.2737  -10.2244 H   0  0  0  0  0  0  0  0  0  0  0  0
    9.1918   12.2553   -9.3091 H   0  0  0  0  0  0  0  0  0  0  0  0
    8.6312   11.2595  -10.6609 H   0  0  0  0  0  0  0  0  0  0  0  0
   10.3777    4.7912  -10.1360 H   0  0  0  0  0  0  0  0  0  0  0  0
   10.3882    5.7044   -7.4307 H   0  0  0  0  0  0  0  0  0  0  0  0
   11.6960    3.3805   -8.8118 H   0  0  0  0  0  0  0  0  0  0  0  0
   10.3627    3.4361   -7.6799 H   0  0  0  0  0  0  0  0  0  0  0  0
   11.9692    3.7952   -7.1180 H   0  0  0  0  0  0  0  0  0  0  0  0
   14.0051    7.1268   -7.8276 H   0  0  0  0  0  0  0  0  0  0  0  0
   15.4485    5.5471   -8.1312 H   0  0  0  0  0  0  0  0  0  0  0  0
   13.2503    4.3549   -9.7754 H   0  0  0  0  0  0  0  0  0  0  0  0
   14.7377    3.4356   -9.4861 H   0  0  0  0  0  0  0  0  0  0  0  0
   14.7821    5.0431  -10.2288 H   0  0  0  0  0  0  0  0  0  0  0  0
   16.4070    5.9129   -6.3695 H   0  0  0  0  0  0  0  0  0  0  0  0
   16.9170    4.4655   -5.4993 H   0  0  0  0  0  0  0  0  0  0  0  0
   16.2366    5.8627   -4.6093 H   0  0  0  0  0  0  0  0  0  0  0  0
   14.6031    4.7449   -3.5920 H   0  0  0  0  0  0  0  0  0  0  0  0
   12.3112    3.8664   -3.5331 H   0  0  0  0  0  0  0  0  0  0  0  0
   12.3341    3.6066   -5.2258 H   0  0  0  0  0  0  0  0  0  0  0  0
   12.5019    6.1672   -5.4515 H   0  0  0  0  0  0  0  0  0  0  0  0
   10.3190    4.8225   -3.8307 H   0  0  0  0  0  0  0  0  0  0  0  0
   10.3478    4.9746   -5.5421 H   0  0  0  0  0  0  0  0  0  0  0  0
   10.1236    6.4259   -4.5444 H   0  0  0  0  0  0  0  0  0  0  0  0
   12.3894    5.9839   -2.4071 H   0  0  0  0  0  0  0  0  0  0  0  0
   11.8875    7.4206   -3.2998 H   0  0  0  0  0  0  0  0  0  0  0  0
   13.5593    6.8615   -3.3988 H   0  0  0  0  0  0  0  0  0  0  0  0
   14.7671    0.9679   -3.1696 H   0  0  0  0  0  0  0  0  0  0  0  0
   12.0910    1.8041   -4.0534 H   0  0  0  0  0  0  0  0  0  0  0  0
   11.4106   -0.3462   -3.3243 H   0  0  0  0  0  0  0  0  0  0  0  0
   12.9302   -0.6434   -2.4568 H   0  0  0  0  0  0  0  0  0  0  0  0
   12.4512   -0.4529   -5.4920 H   0  0  0  0  0  0  0  0  0  0  0  0
   15.0189   -1.1876   -4.0001 H   0  0  0  0  0  0  0  0  0  0  0  0
   14.8018    0.0129   -5.2994 H   0  0  0  0  0  0  0  0  0  0  0  0
   14.6948   -1.6917   -5.6628 H   0  0  0  0  0  0  0  0  0  0  0  0
   12.8935   -2.8755   -3.6646 H   0  0  0  0  0  0  0  0  0  0  0  0
   12.7222   -2.9395   -5.4269 H   0  0  0  0  0  0  0  0  0  0  0  0
   11.3636   -2.4104   -4.4305 H   0  0  0  0  0  0  0  0  0  0  0  0
   10.7450    0.0005   -1.6606 H   0  0  0  0  0  0  0  0  0  0  0  0
    9.3659    0.8442   -0.9781 H   0  0  0  0  0  0  0  0  0  0  0  0
   10.7705    0.3569    0.0315 H   0  0  0  0  0  0  0  0  0  0  0  0
   10.8934    2.4066    0.8982 H   0  0  0  0  0  0  0  0  0  0  0  0
   11.6596    4.7973   -0.7396 H   0  0  0  0  0  0  0  0  0  0  0  0
   11.3328    5.0506    2.2720 H   0  0  0  0  0  0  0  0  0  0  0  0
   10.0144    5.2976    1.1825 H   0  0  0  0  0  0  0  0  0  0  0  0
   11.4471    6.2923    1.0121 H   0  0  0  0  0  0  0  0  0  0  0  0
   13.0848    4.0121    1.8496 H   0  0  0  0  0  0  0  0  0  0  0  0
   13.7147    4.7612    0.3871 H   0  0  0  0  0  0  0  0  0  0  0  0
   13.4263    3.0072    0.4869 H   0  0  0  0  0  0  0  0  0  0  0  0
    9.4114    3.5099   -2.3894 H   0  0  0  0  0  0  0  0  0  0  0  0
    9.5476    5.1697   -1.8078 H   0  0  0  0  0  0  0  0  0  0  0  0
    8.1173    4.6600   -2.7500 H   0  0  0  0  0  0  0  0  0  0  0  0
  1  2  1  0  0  0  0
  1 87  1  0  0  0  0
  1 88  1  0  0  0  0
  1 89  1  0  0  0  0
  2  3  2  0  0  0  0
  2 90  1  0  0  0  0
  3  4  1  0  0  0  0
  3 91  1  0  0  0  0
  4  5  1  0  0  0  0
  4 92  1  0  0  0  0
  4 93  1  0  0  0  0
  5  6  1  0  0  0  0
  5  7  1  0  0  0  0
  5 94  1  1  0  0  0
  6 95  1  0  0  0  0
  6 96  1  0  0  0  0
  6 97  1  0  0  0  0
  7  8  1  0  0  0  0
  7  9  1  0  0  0  0
  7 98  1  1  0  0  0
  8 99  1  0  0  0  0
  9 10  1  0  0  0  0
  9 85  1  0  0  0  0
  9100  1  6  0  0  0
 10 11  2  0  0  0  0
 10 12  1  0  0  0  0
 12 13  1  0  0  0  0
 12101  1  0  0  0  0
 13 14  1  0  0  0  0
 13 17  1  0  0  0  0
 13102  1  6  0  0  0
 14 15  1  0  0  0  0
 14 16  1  0  0  0  0
 14103  1  1  0  0  0
 15104  1  0  0  0  0
 15105  1  0  0  0  0
 15106  1  0  0  0  0
 16107  1  0  0  0  0
 17 18  2  0  0  0  0
 17 19  1  0  0  0  0
 19 20  1  0  0  0  0
 19 21  1  0  0  0  0
 20108  1  0  0  0  0
 20109  1  0  0  0  0
 20110  1  0  0  0  0
 21 22  1  0  0  0  0
 21111  1  0  0  0  0
 21112  1  0  0  0  0
 22 23  2  0  0  0  0
 22 24  1  0  0  0  0
 24 25  1  0  0  0  0
 24 26  1  0  0  0  0
 25113  1  0  0  0  0
 25114  1  0  0  0  0
 25115  1  0  0  0  0
 26 31  1  0  0  0  0
 26 27  1  0  0  0  0
 26116  1  6  0  0  0
 27 28  1  0  0  0  0
 27117  1  0  0  0  0
 27118  1  0  0  0  0
 28 29  1  0  0  0  0
 28 30  1  0  0  0  0
 28119  1  0  0  0  0
 29120  1  0  0  0  0
 29121  1  0  0  0  0
 29122  1  0  0  0  0
 30123  1  0  0  0  0
 30124  1  0  0  0  0
 30125  1  0  0  0  0
 31 32  2  0  0  0  0
 31 33  1  0  0  0  0
 33 34  1  0  0  0  0
 33126  1  0  0  0  0
 34 35  1  0  0  0  0
 34 39  1  0  0  0  0
 34127  1  1  0  0  0
 35 36  1  0  0  0  0
 35128  1  0  0  0  0
 35129  1  0  0  0  0
 36 37  1  0  0  0  0
 36 38  1  0  0  0  0
 36130  1  0  0  0  0
 37131  1  0  0  0  0
 37132  1  0  0  0  0
 37133  1  0  0  0  0
 38134  1  0  0  0  0
 38135  1  0  0  0  0
 38136  1  0  0  0  0
 39 40  2  0  0  0  0
 39 41  1  0  0  0  0
 41 42  1  0  0  0  0
 41 43  1  0  0  0  0
 42137  1  0  0  0  0
 42138  1  0  0  0  0
 42139  1  0  0  0  0
 43 48  1  0  0  0  0
 43 44  1  0  0  0  0
 43140  1  1  0  0  0
 44 45  1  0  0  0  0
 44141  1  0  0  0  0
 44142  1  0  0  0  0
 45 46  1  0  0  0  0
 45 47  1  0  0  0  0
 45143  1  0  0  0  0
 46144  1  0  0  0  0
 46145  1  0  0  0  0
 46146  1  0  0  0  0
 47147  1  0  0  0  0
 47148  1  0  0  0  0
 47149  1  0  0  0  0
 48 49  2  0  0  0  0
 48 50  1  0  0  0  0
 50 51  1  0  0  0  0
 50150  1  0  0  0  0
 51 52  1  0  0  0  0
 51 53  1  0  0  0  0
 51151  1  1  0  0  0
 52152  1  0  0  0  0
 52153  1  0  0  0  0
 52154  1  0  0  0  0
 53 54  2  0  0  0  0
 53 55  1  0  0  0  0
 55 56  1  0  0  0  0
 55155  1  0  0  0  0
 56 58  1  0  0  0  0
 56 57  1  0  0  0  0
 56156  1  6  0  0  0
 57157  1  0  0  0  0
 57158  1  0  0  0  0
 57159  1  0  0  0  0
 58 59  2  0  0  0  0
 58 60  1  0  0  0  0
 60 61  1  0  0  0  0
 60 62  1  0  0  0  0
 61160  1  0  0  0  0
 61161  1  0  0  0  0
 61162  1  0  0  0  0
 62 63  1  0  0  0  0
 62 67  1  0  0  0  0
 62163  1  1  0  0  0
 63 64  1  0  0  0  0
 63164  1  0  0  0  0
 63165  1  0  0  0  0
 64 65  1  0  0  0  0
 64 66  1  0  0  0  0
 64166  1  0  0  0  0
 65167  1  0  0  0  0
 65168  1  0  0  0  0
 65169  1  0  0  0  0
 66170  1  0  0  0  0
 66171  1  0  0  0  0
 66172  1  0  0  0  0
 67 68  2  0  0  0  0
 67 69  1  0  0  0  0
 69 70  1  0  0  0  0
 69173  1  0  0  0  0
 70 71  1  0  0  0  0
 70 75  1  0  0  0  0
 70174  1  6  0  0  0
 71 72  1  0  0  0  0
 71175  1  0  0  0  0
 71176  1  0  0  0  0
 72 73  1  0  0  0  0
 72 74  1  0  0  0  0
 72177  1  0  0  0  0
 73178  1  0  0  0  0
 73179  1  0  0  0  0
 73180  1  0  0  0  0
 74181  1  0  0  0  0
 74182  1  0  0  0  0
 74183  1  0  0  0  0
 75 76  2  0  0  0  0
 75 77  1  0  0  0  0
 77 78  1  0  0  0  0
 77 79  1  0  0  0  0
 78184  1  0  0  0  0
 78185  1  0  0  0  0
 78186  1  0  0  0  0
 79 80  1  0  0  0  0
 79 83  1  0  0  0  0
 79187  1  1  0  0  0
 80 81  1  0  0  0  0
 80 82  1  0  0  0  0
 80188  1  0  0  0  0
 81189  1  0  0  0  0
 81190  1  0  0  0  0
 81191  1  0  0  0  0
 82192  1  0  0  0  0
 82193  1  0  0  0  0
 82194  1  0  0  0  0
 83 84  2  0  0  0  0
 83 85  1  0  0  0  0
 85 86  1  0  0  0  0
 86195  1  0  0  0  0
 86196  1  0  0  0  0
 86197  1  0  0  0  0
M  END
>  <Energy>
633.547

$$$$