66
 OpenBabel03292021513D

168171  0  0  1  0  0  0  0  0999 V2000
    7.4335    4.1060    0.4350 C   0  0  0  0  0  0  0  0  0  0  0  0
    8.1160    4.6395    1.6986 C   0  0  0  0  0  0  0  0  0  0  0  0
    9.2865    3.8084    2.3094 C   0  0  2  0  0  0  0  0  0  0  0  0
    9.5947    2.5127    1.5404 C   0  0  0  0  0  0  0  0  0  0  0  0
    9.1895    3.5000    3.8320 C   0  0  1  0  0  0  0  0  0  0  0  0
   10.1310    4.5712    4.6910 O   0  0  0  0  0  0  0  0  0  0  0  0
   11.4511    4.4413    5.1276 C   0  0  0  0  0  0  0  0  0  0  0  0
   12.0359    3.3965    4.8760 O   0  0  0  0  0  0  0  0  0  0  0  0
   12.4417    5.7772    5.8554 C   0  0  2  0  0  0  0  0  0  0  0  0
   12.4329    7.3988    6.3126 C   0  0  0  0  0  0  0  0  0  0  0  0
   13.2369    7.8637    7.5781 C   0  0  0  0  0  0  0  0  0  0  0  0
   13.0167    8.3084    5.2006 C   0  0  0  0  0  0  0  0  0  0  0  0
   11.1554    7.8666    6.5990 O   0  0  0  0  0  0  0  0  0  0  0  0
   13.6445    5.2178    6.5891 N   0  0  0  0  0  0  0  0  0  0  0  0
   14.9243    5.4204    5.9008 C   0  0  0  0  0  0  0  0  0  0  0  0
   13.7343    5.2133    7.9933 C   0  0  0  0  0  0  0  0  0  0  0  0
   14.7885    5.5667    8.5519 O   0  0  0  0  0  0  0  0  0  0  0  0
   12.5900    4.6640    8.8905 C   0  0  2  0  0  0  0  0  0  0  0  0
   11.9872    3.3683    8.3127 C   0  0  0  0  0  0  0  0  0  0  0  0
   12.9597    2.1625    8.0281 C   0  0  0  0  0  0  0  0  0  0  0  0
   14.3742    2.3889    7.4889 C   0  0  0  0  0  0  0  0  0  0  0  0
   13.0724    1.2415    9.2454 C   0  0  0  0  0  0  0  0  0  0  0  0
   11.7553    5.3918    9.9583 N   0  0  0  0  0  0  0  0  0  0  0  0
   10.6377    6.1466   10.1840 C   0  0  0  0  0  0  0  0  0  0  0  0
    9.9636    5.6611   11.1178 O   0  0  0  0  0  0  0  0  0  0  0  0
   10.2311    7.6153    9.6812 C   0  0  2  0  0  0  0  0  0  0  0  0
   10.4761    8.6345   10.9011 C   0  0  0  0  0  0  0  0  0  0  0  0
    9.7992   10.0143   10.7634 C   0  0  0  0  0  0  0  0  0  0  0  0
   11.9457    8.8593   11.2519 C   0  0  0  0  0  0  0  0  0  0  0  0
    8.7453    7.7440    9.2210 N   0  0  0  0  0  0  0  0  0  0  0  0
    7.8339    7.3980   10.3245 C   0  0  0  0  0  0  0  0  0  0  0  0
    8.4394    8.6397    8.1402 C   0  0  0  0  0  0  0  0  0  0  0  0
    9.3737    9.4516    7.9157 O   0  0  0  0  0  0  0  0  0  0  0  0
    6.9482    8.7492    7.0540 C   0  0  2  0  0  0  0  0  0  0  0  0
    6.2943    8.1481    5.4819 C   0  0  0  0  0  0  0  0  0  0  0  0
    4.8642    8.6152    5.1471 C   0  0  0  0  0  0  0  0  0  0  0  0
    6.3825    6.7959    4.6961 C   0  0  0  0  0  0  0  0  0  0  0  0
    7.1564   10.1256    6.6791 N   0  0  0  0  0  0  0  0  0  0  0  0
    8.1002   10.3550    5.7306 C   0  0  0  0  0  0  0  0  0  0  0  0
    8.2164   11.4879    5.2626 O   0  0  0  0  0  0  0  0  0  0  0  0
    9.0220    9.1335    5.3387 C   0  0  2  0  0  0  0  0  0  0  0  0
    9.2282    9.3834    3.8161 C   0  0  0  0  0  0  0  0  0  0  0  0
    9.4596    8.0510    3.1811 C   0  0  0  0  0  0  0  0  0  0  0  0
    9.5404    7.0664    4.3264 C   0  0  0  0  0  0  0  0  0  0  0  0
    8.7417    7.5266    5.4651 N   0  0  0  0  0  0  0  0  0  0  0  0
    8.6571    6.4920    6.6513 C   0  0  0  0  0  0  0  0  0  0  0  0
    9.7083    5.9233    7.0102 O   0  0  0  0  0  0  0  0  0  0  0  0
    7.1043    5.7440    7.3743 C   0  0  2  0  0  0  0  0  0  0  0  0
    6.0135    6.3981    8.4201 C   0  0  0  0  0  0  0  0  0  0  0  0
    4.4679    6.6188    8.4712 C   0  0  0  0  0  0  0  0  0  0  0  0
    3.6473    5.6974    9.1332 C   0  0  0  0  0  0  0  0  0  0  0  0
    2.2668    5.9166    9.3498 C   0  0  0  0  0  0  0  0  0  0  0  0
    1.6780    7.0976    8.9340 C   0  0  0  0  0  0  0  0  0  0  0  0
    2.4643    8.0652    8.3377 C   0  0  0  0  0  0  0  0  0  0  0  0
    3.8356    7.8319    8.1374 C   0  0  0  0  0  0  0  0  0  0  0  0
    7.2484    4.2670    7.9142 N   0  0  0  0  0  0  0  0  0  0  0  0
    8.5131    3.7480    8.3673 C   0  0  0  0  0  0  0  0  0  0  0  0
    6.1628    3.4575    7.6752 C   0  0  0  0  0  0  0  0  0  0  0  0
    5.0664    4.0455    7.5881 O   0  0  0  0  0  0  0  0  0  0  0  0
    6.0519    1.9113    7.5599 C   0  0  2  0  0  0  0  0  0  0  0  0
    6.8713    0.6973    7.0706 C   0  0  0  0  0  0  0  0  0  0  0  0
    8.2218    0.5776    6.4369 C   0  0  0  0  0  0  0  0  0  0  0  0
    9.3511    0.4466    7.2400 C   0  0  0  0  0  0  0  0  0  0  0  0
   10.5544    0.0055    6.6883 C   0  0  0  0  0  0  0  0  0  0  0  0
   10.6716   -0.2374    5.3218 C   0  0  0  0  0  0  0  0  0  0  0  0
    9.5544   -0.1245    4.5085 C   0  0  0  0  0  0  0  0  0  0  0  0
    8.3317    0.2546    5.0691 C   0  0  0  0  0  0  0  0  0  0  0  0
    4.7491    1.7593    6.8206 N   0  0  0  0  0  0  0  0  0  0  0  0
    4.5538    2.0378    5.4925 C   0  0  0  0  0  0  0  0  0  0  0  0
    3.8411    1.2317    4.8795 O   0  0  0  0  0  0  0  0  0  0  0  0
    5.1531    3.3179    4.7703 C   0  0  2  0  0  0  0  0  0  0  0  0
    3.8625    4.0303    4.1401 C   0  0  0  0  0  0  0  0  0  0  0  0
    4.0241    4.8294    2.8513 C   0  0  0  0  0  0  0  0  0  0  0  0
    3.1573    4.9162    5.2092 C   0  0  0  0  0  0  0  0  0  0  0  0
    6.4112    3.0716    3.9190 N   0  0  0  0  0  0  0  0  0  0  0  0
    6.1729    2.1591    2.8160 C   0  0  0  0  0  0  0  0  0  0  0  0
    7.6877    3.3961    4.4488 C   0  0  0  0  0  0  0  0  0  0  0  0
    7.7022    3.6434    5.6515 O   0  0  0  0  0  0  0  0  0  0  0  0
    8.0774    4.2174   -0.4417 H   0  0  0  0  0  0  0  0  0  0  0  0
    6.5126    4.6691    0.2409 H   0  0  0  0  0  0  0  0  0  0  0  0
    7.1533    3.0533    0.5057 H   0  0  0  0  0  0  0  0  0  0  0  0
    7.3424    4.8547    2.4388 H   0  0  0  0  0  0  0  0  0  0  0  0
    8.5086    5.6291    1.4394 H   0  0  0  0  0  0  0  0  0  0  0  0
   10.1924    4.4315    2.1932 H   0  0  0  0  0  0  0  0  0  0  0  0
    8.8373    1.7405    1.6752 H   0  0  0  0  0  0  0  0  0  0  0  0
   10.5382    2.0805    1.8866 H   0  0  0  0  0  0  0  0  0  0  0  0
    9.6940    2.6930    0.4667 H   0  0  0  0  0  0  0  0  0  0  0  0
    9.6867    2.5594    4.0707 H   0  0  0  0  0  0  0  0  0  0  0  0
   12.8569    5.9618    4.8497 H   0  0  0  0  0  0  0  0  0  0  0  0
   13.0843    8.9358    7.7763 H   0  0  0  0  0  0  0  0  0  0  0  0
   14.3182    7.7450    7.4892 H   0  0  0  0  0  0  0  0  0  0  0  0
   12.8869    7.3920    8.4969 H   0  0  0  0  0  0  0  0  0  0  0  0
   12.7652    9.3669    5.4074 H   0  0  0  0  0  0  0  0  0  0  0  0
   12.6123    8.0841    4.2210 H   0  0  0  0  0  0  0  0  0  0  0  0
   14.1057    8.2440    5.1628 H   0  0  0  0  0  0  0  0  0  0  0  0
   11.1774    8.7176    7.0880 H   0  0  0  0  0  0  0  0  0  0  0  0
   15.2456    6.4610    5.9994 H   0  0  0  0  0  0  0  0  0  0  0  0
   14.8304    5.1661    4.8416 H   0  0  0  0  0  0  0  0  0  0  0  0
   15.7017    4.7924    6.3453 H   0  0  0  0  0  0  0  0  0  0  0  0
   13.2623    4.2019    9.6396 H   0  0  0  0  0  0  0  0  0  0  0  0
   11.2068    3.0064    8.9917 H   0  0  0  0  0  0  0  0  0  0  0  0
   11.4597    3.6080    7.3938 H   0  0  0  0  0  0  0  0  0  0  0  0
   12.4749    1.5967    7.2336 H   0  0  0  0  0  0  0  0  0  0  0  0
   14.9995    2.9665    8.1743 H   0  0  0  0  0  0  0  0  0  0  0  0
   14.3532    2.8515    6.5015 H   0  0  0  0  0  0  0  0  0  0  0  0
   14.8900    1.4316    7.3394 H   0  0  0  0  0  0  0  0  0  0  0  0
   13.6044    1.7323   10.0654 H   0  0  0  0  0  0  0  0  0  0  0  0
   13.6237    0.3290    8.9858 H   0  0  0  0  0  0  0  0  0  0  0  0
   12.0858    0.9328    9.6003 H   0  0  0  0  0  0  0  0  0  0  0  0
   11.6652    4.7130   10.7088 H   0  0  0  0  0  0  0  0  0  0  0  0
   10.8830    7.9003    8.8716 H   0  0  0  0  0  0  0  0  0  0  0  0
   10.0540    8.1861   11.8097 H   0  0  0  0  0  0  0  0  0  0  0  0
   10.2483   10.6060    9.9610 H   0  0  0  0  0  0  0  0  0  0  0  0
    9.9035   10.5892   11.6915 H   0  0  0  0  0  0  0  0  0  0  0  0
    8.7221    9.9429   10.5846 H   0  0  0  0  0  0  0  0  0  0  0  0
   12.4808    9.3626   10.4436 H   0  0  0  0  0  0  0  0  0  0  0  0
   12.4476    7.9192   11.4909 H   0  0  0  0  0  0  0  0  0  0  0  0
   12.0178    9.4951   12.1459 H   0  0  0  0  0  0  0  0  0  0  0  0
    8.2625    7.6097   11.3038 H   0  0  0  0  0  0  0  0  0  0  0  0
    7.6906    6.3146   10.3289 H   0  0  0  0  0  0  0  0  0  0  0  0
    6.9188    7.9846   10.3116 H   0  0  0  0  0  0  0  0  0  0  0  0
    6.1291    8.8784    7.7376 H   0  0  0  0  0  0  0  0  0  0  0  0
    6.8121    8.7650    4.7464 H   0  0  0  0  0  0  0  0  0  0  0  0
    4.6273    8.3659    4.0990 H   0  0  0  0  0  0  0  0  0  0  0  0
    4.1123    8.0876    5.7219 H   0  0  0  0  0  0  0  0  0  0  0  0
    4.7598    9.6943    5.2376 H   0  0  0  0  0  0  0  0  0  0  0  0
    5.5090    6.1851    4.8554 H   0  0  0  0  0  0  0  0  0  0  0  0
    7.2253    6.1229    4.8019 H   0  0  0  0  0  0  0  0  0  0  0  0
    6.4083    7.0080    3.6150 H   0  0  0  0  0  0  0  0  0  0  0  0
    6.4738   10.8508    6.8454 H   0  0  0  0  0  0  0  0  0  0  0  0
    9.9824    9.3756    5.7753 H   0  0  0  0  0  0  0  0  0  0  0  0
   10.0636   10.0733    3.6434 H   0  0  0  0  0  0  0  0  0  0  0  0
    8.3517    9.8413    3.3378 H   0  0  0  0  0  0  0  0  0  0  0  0
   10.3564    8.0431    2.5505 H   0  0  0  0  0  0  0  0  0  0  0  0
    8.6145    7.7936    2.5341 H   0  0  0  0  0  0  0  0  0  0  0  0
   10.5878    6.9822    4.5944 H   0  0  0  0  0  0  0  0  0  0  0  0
    9.1538    6.1457    3.9358 H   0  0  0  0  0  0  0  0  0  0  0  0
    6.4989    5.5828    6.5071 H   0  0  0  0  0  0  0  0  0  0  0  0
    6.1422    5.7993    9.3269 H   0  0  0  0  0  0  0  0  0  0  0  0
    6.3609    7.3633    8.6739 H   0  0  0  0  0  0  0  0  0  0  0  0
    4.0641    4.7730    9.5297 H   0  0  0  0  0  0  0  0  0  0  0  0
    1.6766    5.1597    9.8514 H   0  0  0  0  0  0  0  0  0  0  0  0
    0.6204    7.2806    9.0973 H   0  0  0  0  0  0  0  0  0  0  0  0
    2.0337    9.0180    8.0416 H   0  0  0  0  0  0  0  0  0  0  0  0
    4.3489    8.6849    7.7392 H   0  0  0  0  0  0  0  0  0  0  0  0
    8.9731    4.4665    9.0401 H   0  0  0  0  0  0  0  0  0  0  0  0
    9.1680    3.5451    7.5196 H   0  0  0  0  0  0  0  0  0  0  0  0
    8.3570    2.8148    8.9149 H   0  0  0  0  0  0  0  0  0  0  0  0
    5.7858    1.6501    8.5968 H   0  0  0  0  0  0  0  0  0  0  0  0
    6.8904   -0.0054    7.9193 H   0  0  0  0  0  0  0  0  0  0  0  0
    6.2255    0.1250    6.3810 H   0  0  0  0  0  0  0  0  0  0  0  0
    9.2881    0.5969    8.3144 H   0  0  0  0  0  0  0  0  0  0  0  0
   11.4049   -0.1755    7.3352 H   0  0  0  0  0  0  0  0  0  0  0  0
   11.6291   -0.5394    4.9052 H   0  0  0  0  0  0  0  0  0  0  0  0
    9.6263   -0.3640    3.4511 H   0  0  0  0  0  0  0  0  0  0  0  0
    7.4474    0.2359    4.4374 H   0  0  0  0  0  0  0  0  0  0  0  0
    4.1886    0.9694    7.1121 H   0  0  0  0  0  0  0  0  0  0  0  0
    5.4846    4.0357    5.4958 H   0  0  0  0  0  0  0  0  0  0  0  0
    3.1130    3.2661    3.8975 H   0  0  0  0  0  0  0  0  0  0  0  0
    4.8563    5.5274    2.8771 H   0  0  0  0  0  0  0  0  0  0  0  0
    3.1141    5.4093    2.6446 H   0  0  0  0  0  0  0  0  0  0  0  0
    4.1528    4.1656    1.9951 H   0  0  0  0  0  0  0  0  0  0  0  0
    3.8170    5.6727    5.6343 H   0  0  0  0  0  0  0  0  0  0  0  0
    2.7902    4.3157    6.0472 H   0  0  0  0  0  0  0  0  0  0  0  0
    2.2979    5.4541    4.7924 H   0  0  0  0  0  0  0  0  0  0  0  0
    5.5459    1.3302    3.1399 H   0  0  0  0  0  0  0  0  0  0  0  0
    7.1002    1.7280    2.4578 H   0  0  0  0  0  0  0  0  0  0  0  0
    5.6456    2.6774    2.0176 H   0  0  0  0  0  0  0  0  0  0  0  0
  1  2  1  0  0  0  0
  1 79  1  0  0  0  0
  1 80  1  0  0  0  0
  1 81  1  0  0  0  0
  2 82  1  0  0  0  0
  2 83  1  0  0  0  0
  3  5  1  0  0  0  0
  3  4  1  0  0  0  0
  3  2  1  0  0  0  0
  3 84  1  6  0  0  0
  4 85  1  0  0  0  0
  4 86  1  0  0  0  0
  4 87  1  0  0  0  0
  5  6  1  0  0  0  0
  5 77  1  0  0  0  0
  5 88  1  1  0  0  0
  6  7  1  0  0  0  0
  7  8  2  0  0  0  0
  7  9  1  0  0  0  0
  9 14  1  0  0  0  0
  9 10  1  0  0  0  0
  9 89  1  1  0  0  0
 10 11  1  0  0  0  0
 10 12  1  0  0  0  0
 10 13  1  0  0  0  0
 11 90  1  0  0  0  0
 11 91  1  0  0  0  0
 11 92  1  0  0  0  0
 12 93  1  0  0  0  0
 12 94  1  0  0  0  0
 12 95  1  0  0  0  0
 13 96  1  0  0  0  0
 14 15  1  0  0  0  0
 14 16  1  0  0  0  0
 15 97  1  0  0  0  0
 15 98  1  0  0  0  0
 15 99  1  0  0  0  0
 16 17  2  0  0  0  0
 16 18  1  0  0  0  0
 18 23  1  0  0  0  0
 18 19  1  0  0  0  0
 18100  1  1  0  0  0
 19 20  1  0  0  0  0
 19101  1  0  0  0  0
 19102  1  0  0  0  0
 20 21  1  0  0  0  0
 20 22  1  0  0  0  0
 20103  1  0  0  0  0
 21104  1  0  0  0  0
 21105  1  0  0  0  0
 21106  1  0  0  0  0
 22107  1  0  0  0  0
 22108  1  0  0  0  0
 22109  1  0  0  0  0
 23 24  1  0  0  0  0
 23110  1  0  0  0  0
 24 25  2  0  0  0  0
 24 26  1  0  0  0  0
 26 30  1  0  0  0  0
 26 27  1  0  0  0  0
 26111  1  6  0  0  0
 27 28  1  0  0  0  0
 27 29  1  0  0  0  0
 27112  1  0  0  0  0
 28113  1  0  0  0  0
 28114  1  0  0  0  0
 28115  1  0  0  0  0
 29116  1  0  0  0  0
 29117  1  0  0  0  0
 29118  1  0  0  0  0
 30 31  1  0  0  0  0
 30 32  1  0  0  0  0
 31119  1  0  0  0  0
 31120  1  0  0  0  0
 31121  1  0  0  0  0
 32 33  2  0  0  0  0
 32 34  1  0  0  0  0
 34 38  1  0  0  0  0
 34 35  1  0  0  0  0
 34122  1  1  0  0  0
 35 36  1  0  0  0  0
 35 37  1  0  0  0  0
 35123  1  0  0  0  0
 36124  1  0  0  0  0
 36125  1  0  0  0  0
 36126  1  0  0  0  0
 37127  1  0  0  0  0
 37128  1  0  0  0  0
 37129  1  0  0  0  0
 38 39  1  0  0  0  0
 38130  1  0  0  0  0
 39 40  2  0  0  0  0
 39 41  1  0  0  0  0
 41 42  1  0  0  0  0
 41 45  1  0  0  0  0
 41131  1  1  0  0  0
 42 43  1  0  0  0  0
 42132  1  0  0  0  0
 42133  1  0  0  0  0
 43 44  1  0  0  0  0
 43134  1  0  0  0  0
 43135  1  0  0  0  0
 44 45  1  0  0  0  0
 44136  1  0  0  0  0
 44137  1  0  0  0  0
 45 46  1  0  0  0  0
 46 47  2  0  0  0  0
 46 48  1  0  0  0  0
 48 56  1  0  0  0  0
 48 49  1  0  0  0  0
 48138  1  6  0  0  0
 49 50  1  0  0  0  0
 49139  1  0  0  0  0
 49140  1  0  0  0  0
 50 51  1  0  0  0  0
 50 55  2  0  0  0  0
 51 52  2  0  0  0  0
 51141  1  0  0  0  0
 52 53  1  0  0  0  0
 52142  1  0  0  0  0
 53 54  2  0  0  0  0
 53143  1  0  0  0  0
 54 55  1  0  0  0  0
 54144  1  0  0  0  0
 55145  1  0  0  0  0
 56 57  1  0  0  0  0
 56 58  1  0  0  0  0
 57146  1  0  0  0  0
 57147  1  0  0  0  0
 57148  1  0  0  0  0
 58 59  2  0  0  0  0
 58 60  1  0  0  0  0
 60 68  1  0  0  0  0
 60 61  1  0  0  0  0
 60149  1  1  0  0  0
 61 62  1  0  0  0  0
 61150  1  0  0  0  0
 61151  1  0  0  0  0
 62 63  1  0  0  0  0
 62 67  2  0  0  0  0
 63 64  2  0  0  0  0
 63152  1  0  0  0  0
 64 65  1  0  0  0  0
 64153  1  0  0  0  0
 65 66  2  0  0  0  0
 65154  1  0  0  0  0
 66 67  1  0  0  0  0
 66155  1  0  0  0  0
 67156  1  0  0  0  0
 68 69  1  0  0  0  0
 68157  1  0  0  0  0
 69 70  2  0  0  0  0
 69 71  1  0  0  0  0
 71 75  1  0  0  0  0
 71 72  1  0  0  0  0
 71158  1  1  0  0  0
 72 73  1  0  0  0  0
 72 74  1  0  0  0  0
 72159  1  0  0  0  0
 73160  1  0  0  0  0
 73161  1  0  0  0  0
 73162  1  0  0  0  0
 74163  1  0  0  0  0
 74164  1  0  0  0  0
 74165  1  0  0  0  0
 75 76  1  0  0  0  0
 75 77  1  0  0  0  0
 76166  1  0  0  0  0
 76167  1  0  0  0  0
 76168  1  0  0  0  0
 77 78  2  0  0  0  0
M  END
>  <Energy>
927.577

$$$$