44285896
  -OEChem-03242010103D

 85 86  0     1  0  0  0  0  0999 V2000
    1.4950    1.1071   -0.8782 O   0  0  0  0  0  0  0  0  0  0  0  0
   -0.5468    2.2641    0.9938 O   0  0  0  0  0  0  0  0  0  0  0  0
   -2.1221    0.6860   -2.4397 O   0  0  0  0  0  0  0  0  0  0  0  0
   -3.1130    0.8429    0.1590 O   0  0  0  0  0  0  0  0  0  0  0  0
    1.0418    2.3453    2.6619 O   0  0  0  0  0  0  0  0  0  0  0  0
    0.2838    2.4141   -2.3397 O   0  0  0  0  0  0  0  0  0  0  0  0
   -3.3407    0.1153   -4.4203 O   0  0  0  0  0  0  0  0  0  0  0  0
   -1.1928   -0.4726    0.2443 N   0  0  0  0  0  0  0  0  0  0  0  0
   -1.5039   -1.2310   -0.9866 C   0  0  2  0  0  0  0  0  0  0  0  0
   -1.2563   -0.4306   -2.2930 C   0  0  2  0  0  0  0  0  0  0  0  0
    2.3058    2.2049   -0.3797 C   0  0  1  0  0  0  0  0  0  0  0  0
    1.4972    3.2385    0.4355 C   0  0  1  0  0  0  0  0  0  0  0  0
   -2.8911   -1.8846   -0.9423 C   0  0  0  0  0  0  0  0  0  0  0  0
    3.4430    1.5517    0.4049 C   0  0  0  0  0  0  0  0  0  0  0  0
   -1.4785    1.4835    1.7665 C   0  0  2  0  0  0  0  0  0  0  0  0
    0.1980    0.0027   -2.5164 C   0  0  0  0  0  0  0  0  0  0  0  0
    4.1727    0.5124   -0.4434 C   0  0  0  0  0  0  0  0  0  0  0  0
   -2.0201    0.5811    0.6694 C   0  0  0  0  0  0  0  0  0  0  0  0
   -2.5269    2.4207    2.3454 C   0  0  0  0  0  0  0  0  0  0  0  0
    5.3311   -0.1646    0.2950 C   0  0  0  0  0  0  0  0  0  0  0  0
    0.6655    2.5777    1.5226 C   0  0  0  0  0  0  0  0  0  0  0  0
    0.6283    1.3229   -1.9052 C   0  0  0  0  0  0  0  0  0  0  0  0
   -3.0325   -2.7869    0.2491 C   0  0  0  0  0  0  0  0  0  0  0  0
   -0.0448   -0.9781    1.0029 C   0  0  0  0  0  0  0  0  0  0  0  0
    2.3595    4.3486    1.0348 C   0  0  0  0  0  0  0  0  0  0  0  0
    6.0190   -1.2585   -0.5248 C   0  0  0  0  0  0  0  0  0  0  0  0
   -3.4246    1.6784    3.3330 C   0  0  0  0  0  0  0  0  0  0  0  0
   -1.8625    3.6189    3.0201 C   0  0  0  0  0  0  0  0  0  0  0  0
    7.1509   -1.9157    0.2685 C   0  0  0  0  0  0  0  0  0  0  0  0
   -2.3842    0.9806   -3.8087 C   0  0  0  0  0  0  0  0  0  0  0  0
   -2.6820   -4.1332    0.1494 C   0  0  0  0  0  0  0  0  0  0  0  0
   -3.5142   -2.2791    1.4555 C   0  0  0  0  0  0  0  0  0  0  0  0
    7.8151   -3.0348   -0.5332 C   0  0  0  0  0  0  0  0  0  0  0  0
   -2.8133   -4.9720    1.2563 C   0  0  0  0  0  0  0  0  0  0  0  0
   -3.6455   -3.1177    2.5624 C   0  0  0  0  0  0  0  0  0  0  0  0
    8.9620   -3.6678    0.2384 C   0  0  0  0  0  0  0  0  0  0  0  0
   -3.2950   -4.4642    2.4627 C   0  0  0  0  0  0  0  0  0  0  0  0
   -4.6777    0.4939   -4.1203 C   0  0  0  0  0  0  0  0  0  0  0  0
   -0.7854   -2.0639   -1.0200 H   0  0  0  0  0  0  0  0  0  0  0  0
   -1.4810   -1.1500   -3.0950 H   0  0  0  0  0  0  0  0  0  0  0  0
    2.7421    2.7139   -1.2501 H   0  0  0  0  0  0  0  0  0  0  0  0
    0.7893    3.7381   -0.2390 H   0  0  0  0  0  0  0  0  0  0  0  0
   -3.0435   -2.4770   -1.8549 H   0  0  0  0  0  0  0  0  0  0  0  0
   -3.7044   -1.1516   -0.9540 H   0  0  0  0  0  0  0  0  0  0  0  0
    4.1615    2.3054    0.7440 H   0  0  0  0  0  0  0  0  0  0  0  0
    3.0461    1.0476    1.2940 H   0  0  0  0  0  0  0  0  0  0  0  0
   -0.9952    0.9175    2.5662 H   0  0  0  0  0  0  0  0  0  0  0  0
    0.3949    0.1092   -3.5912 H   0  0  0  0  0  0  0  0  0  0  0  0
    0.8846   -0.7907   -2.1956 H   0  0  0  0  0  0  0  0  0  0  0  0
    3.4766   -0.2711   -0.7657 H   0  0  0  0  0  0  0  0  0  0  0  0
    4.5590    0.9879   -1.3535 H   0  0  0  0  0  0  0  0  0  0  0  0
   -3.1603    2.8312    1.5485 H   0  0  0  0  0  0  0  0  0  0  0  0
    6.0691    0.5962    0.5782 H   0  0  0  0  0  0  0  0  0  0  0  0
    4.9522   -0.6007    1.2278 H   0  0  0  0  0  0  0  0  0  0  0  0
   -0.3489   -1.8955    1.5148 H   0  0  0  0  0  0  0  0  0  0  0  0
    0.3351   -0.2794    1.7435 H   0  0  0  0  0  0  0  0  0  0  0  0
    0.7751   -1.2091    0.3167 H   0  0  0  0  0  0  0  0  0  0  0  0
    2.9688    4.8296    0.2630 H   0  0  0  0  0  0  0  0  0  0  0  0
    3.0249    3.9776    1.8209 H   0  0  0  0  0  0  0  0  0  0  0  0
    1.7259    5.1170    1.4922 H   0  0  0  0  0  0  0  0  0  0  0  0
    6.4172   -0.8273   -1.4511 H   0  0  0  0  0  0  0  0  0  0  0  0
    5.2815   -2.0178   -0.8116 H   0  0  0  0  0  0  0  0  0  0  0  0
   -2.8462    1.2711    4.1695 H   0  0  0  0  0  0  0  0  0  0  0  0
   -3.9496    0.8498    2.8486 H   0  0  0  0  0  0  0  0  0  0  0  0
   -4.1838    2.3507    3.7472 H   0  0  0  0  0  0  0  0  0  0  0  0
   -1.1636    3.3062    3.8026 H   0  0  0  0  0  0  0  0  0  0  0  0
   -2.6200    4.2510    3.4982 H   0  0  0  0  0  0  0  0  0  0  0  0
   -1.3364    4.2577    2.3042 H   0  0  0  0  0  0  0  0  0  0  0  0
    6.7556   -2.3235    1.2069 H   0  0  0  0  0  0  0  0  0  0  0  0
    7.8984   -1.1586    0.5349 H   0  0  0  0  0  0  0  0  0  0  0  0
   -2.7353    2.0178   -3.8640 H   0  0  0  0  0  0  0  0  0  0  0  0
   -1.4680    0.9404   -4.4057 H   0  0  0  0  0  0  0  0  0  0  0  0
   -2.3032   -4.5407   -0.7842 H   0  0  0  0  0  0  0  0  0  0  0  0
   -3.8258   -1.2454    1.5501 H   0  0  0  0  0  0  0  0  0  0  0  0
    8.1968   -2.6378   -1.4811 H   0  0  0  0  0  0  0  0  0  0  0  0
    7.0761   -3.8063   -0.7786 H   0  0  0  0  0  0  0  0  0  0  0  0
   -2.5400   -6.0203    1.1788 H   0  0  0  0  0  0  0  0  0  0  0  0
   -4.0276   -2.7239    3.4997 H   0  0  0  0  0  0  0  0  0  0  0  0
    8.6091   -4.1021    1.1792 H   0  0  0  0  0  0  0  0  0  0  0  0
    9.7350   -2.9279    0.4697 H   0  0  0  0  0  0  0  0  0  0  0  0
    9.4218   -4.4657   -0.3529 H   0  0  0  0  0  0  0  0  0  0  0  0
   -3.3987   -5.1174    3.3242 H   0  0  0  0  0  0  0  0  0  0  0  0
   -5.3524   -0.2319   -4.5819 H   0  0  0  0  0  0  0  0  0  0  0  0
   -4.8966    1.4838   -4.5316 H   0  0  0  0  0  0  0  0  0  0  0  0
   -4.8445    0.4883   -3.0388 H   0  0  0  0  0  0  0  0  0  0  0  0
  1 11  1  0  0  0  0
  1 22  1  0  0  0  0
  2 15  1  0  0  0  0
  2 21  1  0  0  0  0
  3 10  1  0  0  0  0
  3 30  1  0  0  0  0
  4 18  2  0  0  0  0
  5 21  2  0  0  0  0
  6 22  2  0  0  0  0
  7 30  1  0  0  0  0
  7 38  1  0  0  0  0
  8  9  1  0  0  0  0
  8 18  1  0  0  0  0
  8 24  1  0  0  0  0
  9 10  1  0  0  0  0
  9 13  1  0  0  0  0
  9 39  1  0  0  0  0
 10 16  1  0  0  0  0
 10 40  1  0  0  0  0
 11 12  1  0  0  0  0
 11 14  1  0  0  0  0
 11 41  1  0  0  0  0
 12 21  1  0  0  0  0
 12 25  1  0  0  0  0
 12 42  1  0  0  0  0
 13 23  1  0  0  0  0
 13 43  1  0  0  0  0
 13 44  1  0  0  0  0
 14 17  1  0  0  0  0
 14 45  1  0  0  0  0
 14 46  1  0  0  0  0
 15 18  1  0  0  0  0
 15 19  1  0  0  0  0
 15 47  1  0  0  0  0
 16 22  1  0  0  0  0
 16 48  1  0  0  0  0
 16 49  1  0  0  0  0
 17 20  1  0  0  0  0
 17 50  1  0  0  0  0
 17 51  1  0  0  0  0
 19 27  1  0  0  0  0
 19 28  1  0  0  0  0
 19 52  1  0  0  0  0
 20 26  1  0  0  0  0
 20 53  1  0  0  0  0
 20 54  1  0  0  0  0
 23 31  2  0  0  0  0
 23 32  1  0  0  0  0
 24 55  1  0  0  0  0
 24 56  1  0  0  0  0
 24 57  1  0  0  0  0
 25 58  1  0  0  0  0
 25 59  1  0  0  0  0
 25 60  1  0  0  0  0
 26 29  1  0  0  0  0
 26 61  1  0  0  0  0
 26 62  1  0  0  0  0
 27 63  1  0  0  0  0
 27 64  1  0  0  0  0
 27 65  1  0  0  0  0
 28 66  1  0  0  0  0
 28 67  1  0  0  0  0
 28 68  1  0  0  0  0
 29 33  1  0  0  0  0
 29 69  1  0  0  0  0
 29 70  1  0  0  0  0
 30 71  1  0  0  0  0
 30 72  1  0  0  0  0
 31 34  1  0  0  0  0
 31 73  1  0  0  0  0
 32 35  2  0  0  0  0
 32 74  1  0  0  0  0
 33 36  1  0  0  0  0
 33 75  1  0  0  0  0
 33 76  1  0  0  0  0
 34 37  2  0  0  0  0
 34 77  1  0  0  0  0
 35 37  1  0  0  0  0
 35 78  1  0  0  0  0
 36 79  1  0  0  0  0
 36 80  1  0  0  0  0
 36 81  1  0  0  0  0
 37 82  1  0  0  0  0
 38 83  1  0  0  0  0
 38 84  1  0  0  0  0
 38 85  1  0  0  0  0
M  END
> <PUBCHEM_COMPOUND_CID>
44285896

> <PUBCHEM_CONFORMER_RMSD>
1.2

> <PUBCHEM_CONFORMER_DIVERSEORDER>
1
8
9
17
22
3
25
21
16
19
26
2
7
24
31
27
18
15
20
4
30
29
6
13
11
10
23
12
28
14
5

> <PUBCHEM_MMFF94_PARTIAL_CHARGES>
32
1 -0.43
10 0.28
11 0.28
12 0.06
13 0.14
15 0.34
16 0.06
18 0.57
2 -0.43
21 0.66
22 0.66
23 -0.14
24 0.3
3 -0.56
30 0.56
31 -0.15
32 -0.15
34 -0.15
35 -0.15
37 -0.15
38 0.28
4 -0.57
5 -0.57
6 -0.57
7 -0.56
73 0.15
74 0.15
77 0.15
78 0.15
8 -0.66
82 0.15
9 0.3

> <PUBCHEM_EFFECTIVE_ROTOR_COUNT>
13.8

> <PUBCHEM_PHARMACOPHORE_FEATURES>
10
1 3 acceptor
1 36 hydrophobe
1 4 acceptor
1 5 acceptor
1 6 acceptor
1 7 acceptor
3 14 17 20 hydrophobe
3 19 27 28 hydrophobe
3 26 29 33 hydrophobe
6 23 31 32 34 35 37 rings

> <PUBCHEM_HEAVY_ATOM_COUNT>
38

> <PUBCHEM_ATOM_DEF_STEREO_COUNT>
5

> <PUBCHEM_ATOM_UDEF_STEREO_COUNT>
0

> <PUBCHEM_BOND_DEF_STEREO_COUNT>
0

> <PUBCHEM_BOND_UDEF_STEREO_COUNT>
0

> <PUBCHEM_ISOTOPIC_ATOM_COUNT>
0

> <PUBCHEM_COMPONENT_COUNT>
1

> <PUBCHEM_CACTVS_TAUTO_COUNT>
8

> <PUBCHEM_CONFORMER_ID>
02A3BFC800000001

> <PUBCHEM_MMFF94_ENERGY>
88.4788

> <PUBCHEM_FEATURE_SELFOVERLAP>
50.8

> <PUBCHEM_SHAPE_FINGERPRINT>
10305334 12 18126861395057537810
10369192 42 10881970385796841062
11387372 6 18126018066003630670
11607047 191 17412197455992509824
12422481 6 16699806516145117075
12633046 712 18337110163556418548
14068700 675 17202175530876380148
18603816 31 18115031784594600090
19319366 153 17190669390773946092
23576562 1 7996321974290925400
484985 159 18189054201299696294
6700243 42 17316188422397763363
9849439 229 8973277118771782562

> <PUBCHEM_SHAPE_MULTIPOLES>
735.96
13.2
6.27
4.19
42.69
4.12
3.83
18.93
-0.19
-0.65
-5.52
-8.22
-2.21
1.65

> <PUBCHEM_SHAPE_SELFOVERLAP>
1480.197

> <PUBCHEM_SHAPE_VOLUME>
427.3

> <PUBCHEM_COORDINATE_TYPE>
2
5
10

$$$$