67
 OpenBabel03292021513D

 93 94  0  0  1  0  0  0  0  0999 V2000
   11.4596    2.2696    1.2623 C   0  0  0  0  0  0  0  0  0  0  0  0
   10.4051    1.2163    1.6354 C   0  0  0  0  0  0  0  0  0  0  0  0
   10.5792   -0.0809    0.8312 C   0  0  0  0  0  0  0  0  0  0  0  0
   10.5912    0.8742    3.1239 C   0  0  0  0  0  0  0  0  0  0  0  0
    9.0565    1.7511    1.5013 O   0  0  0  0  0  0  0  0  0  0  0  0
    8.6301    2.1585    0.2766 C   0  0  0  0  0  0  0  0  0  0  0  0
    9.2809    2.1074   -0.7628 O   0  0  0  0  0  0  0  0  0  0  0  0
    7.3639    2.6719    0.3366 N   0  0  0  0  0  0  0  0  0  0  0  0
    6.6924    3.1319   -0.8811 C   0  0  1  0  0  0  0  0  0  0  0  0
    5.1784    2.9122   -0.8817 C   0  0  0  0  0  0  0  0  0  0  0  0
    4.8101    1.4592   -0.7477 C   0  0  0  0  0  0  0  0  0  0  0  0
    5.0839    0.7847    0.2356 O   0  0  0  0  0  0  0  0  0  0  0  0
    4.1173    1.0223   -1.8341 O   0  0  0  0  0  0  0  0  0  0  0  0
    3.6964   -0.3525   -1.8200 C   0  0  0  0  0  0  0  0  0  0  0  0
    2.1986   -0.4410   -1.9952 C   0  0  0  0  0  0  0  0  0  0  0  0
    1.5826    0.0446   -3.1580 C   0  0  0  0  0  0  0  0  0  0  0  0
    0.1998   -0.0630   -3.3282 C   0  0  0  0  0  0  0  0  0  0  0  0
   -0.5824   -0.6580   -2.3401 C   0  0  0  0  0  0  0  0  0  0  0  0
    0.0172   -1.1471   -1.1816 C   0  0  0  0  0  0  0  0  0  0  0  0
    1.3996   -1.0395   -1.0093 C   0  0  0  0  0  0  0  0  0  0  0  0
    6.9623    4.6360   -1.1576 C   0  0  0  0  0  0  0  0  0  0  0  0
    6.5263    5.2004   -2.1600 O   0  0  0  0  0  0  0  0  0  0  0  0
    7.6338    5.3167   -0.1667 N   0  0  0  0  0  0  0  0  0  0  0  0
    8.0487    6.7244   -0.2939 C   0  0  1  0  0  0  0  0  0  0  0  0
    7.5430    7.4942    0.9346 C   0  0  0  0  0  0  0  0  0  0  0  0
    7.8090    9.0046    0.9204 C   0  0  0  0  0  0  0  0  0  0  0  0
    7.2015    9.7562   -0.2663 C   0  0  0  0  0  0  0  0  0  0  0  0
    5.6810    9.6320   -0.3049 C   0  0  0  0  0  0  0  0  0  0  0  0
    5.1022   10.3837   -1.3865 N   0  0  0  0  0  0  0  0  0  0  0  0
    4.7460   11.6903   -1.2639 C   0  0  0  0  0  0  0  0  0  0  0  0
    4.9211   12.3746   -0.2694 O   0  0  0  0  0  0  0  0  0  0  0  0
    4.1667   12.0914   -2.4142 O   0  0  0  0  0  0  0  0  0  0  0  0
    3.7688   13.4646   -2.4679 C   0  0  0  0  0  0  0  0  0  0  0  0
    4.5512   14.1153   -3.5760 C   0  0  0  0  0  0  0  0  0  0  0  0
    4.0422   14.1540   -4.8806 C   0  0  0  0  0  0  0  0  0  0  0  0
    4.8009   14.6981   -5.9170 C   0  0  0  0  0  0  0  0  0  0  0  0
    6.0749   15.2017   -5.6594 C   0  0  0  0  0  0  0  0  0  0  0  0
    6.5908   15.1667   -4.3650 C   0  0  0  0  0  0  0  0  0  0  0  0
    5.8339   14.6235   -3.3269 C   0  0  0  0  0  0  0  0  0  0  0  0
    9.5798    6.7731   -0.3545 C   0  0  0  0  0  0  0  0  0  0  0  0
   10.2922    5.9215    0.1746 O   0  0  0  0  0  0  0  0  0  0  0  0
   10.0208    7.8993   -0.9767 O   0  0  0  0  0  0  0  0  0  0  0  0
   11.4432    8.1937   -1.0501 C   0  0  0  0  0  0  0  0  0  0  0  0
   12.1742    7.1308   -1.8768 C   0  0  0  0  0  0  0  0  0  0  0  0
   11.5711    9.5442   -1.7777 C   0  0  0  0  0  0  0  0  0  0  0  0
   12.0504    8.3611    0.3492 C   0  0  0  0  0  0  0  0  0  0  0  0
   12.4741    1.8968    1.4395 H   0  0  0  0  0  0  0  0  0  0  0  0
   11.3173    3.1822    1.8521 H   0  0  0  0  0  0  0  0  0  0  0  0
   11.4018    2.5663    0.2120 H   0  0  0  0  0  0  0  0  0  0  0  0
   11.5913   -0.4845    0.9439 H   0  0  0  0  0  0  0  0  0  0  0  0
   10.3997    0.0588   -0.2377 H   0  0  0  0  0  0  0  0  0  0  0  0
    9.8665   -0.8430    1.1672 H   0  0  0  0  0  0  0  0  0  0  0  0
   11.5866    0.4559    3.3162 H   0  0  0  0  0  0  0  0  0  0  0  0
    9.8443    0.1459    3.4594 H   0  0  0  0  0  0  0  0  0  0  0  0
   10.4670    1.7630    3.7524 H   0  0  0  0  0  0  0  0  0  0  0  0
    6.8823    2.6072    1.2232 H   0  0  0  0  0  0  0  0  0  0  0  0
    7.1264    2.5862   -1.7289 H   0  0  0  0  0  0  0  0  0  0  0  0
    4.7520    3.2963   -1.8175 H   0  0  0  0  0  0  0  0  0  0  0  0
    4.6860    3.4641   -0.0725 H   0  0  0  0  0  0  0  0  0  0  0  0
    4.0066   -0.8834   -0.9132 H   0  0  0  0  0  0  0  0  0  0  0  0
    4.1809   -0.8593   -2.6627 H   0  0  0  0  0  0  0  0  0  0  0  0
    2.1799    0.5075   -3.9407 H   0  0  0  0  0  0  0  0  0  0  0  0
   -0.2676    0.3160   -4.2335 H   0  0  0  0  0  0  0  0  0  0  0  0
   -1.6580   -0.7415   -2.4732 H   0  0  0  0  0  0  0  0  0  0  0  0
   -0.5916   -1.6152   -0.4121 H   0  0  0  0  0  0  0  0  0  0  0  0
    1.8485   -1.4322   -0.0992 H   0  0  0  0  0  0  0  0  0  0  0  0
    8.1767    4.7463    0.4759 H   0  0  0  0  0  0  0  0  0  0  0  0
    7.6421    7.1258   -1.2263 H   0  0  0  0  0  0  0  0  0  0  0  0
    8.0037    7.0779    1.8405 H   0  0  0  0  0  0  0  0  0  0  0  0
    6.4659    7.3181    1.0517 H   0  0  0  0  0  0  0  0  0  0  0  0
    8.8879    9.1914    0.9492 H   0  0  0  0  0  0  0  0  0  0  0  0
    7.4111    9.4320    1.8497 H   0  0  0  0  0  0  0  0  0  0  0  0
    7.6316    9.4030   -1.2105 H   0  0  0  0  0  0  0  0  0  0  0  0
    7.4842   10.8138   -0.1892 H   0  0  0  0  0  0  0  0  0  0  0  0
    5.2536    9.9846    0.6407 H   0  0  0  0  0  0  0  0  0  0  0  0
    5.3729    8.5933   -0.4532 H   0  0  0  0  0  0  0  0  0  0  0  0
    4.9518    9.9584   -2.2913 H   0  0  0  0  0  0  0  0  0  0  0  0
    3.9109   14.0104   -1.5278 H   0  0  0  0  0  0  0  0  0  0  0  0
    2.6956   13.4931   -2.6876 H   0  0  0  0  0  0  0  0  0  0  0  0
    3.0572   13.7469   -5.0976 H   0  0  0  0  0  0  0  0  0  0  0  0
    4.4018   14.7187   -6.9275 H   0  0  0  0  0  0  0  0  0  0  0  0
    6.6694   15.6146   -6.4698 H   0  0  0  0  0  0  0  0  0  0  0  0
    7.5868   15.5528   -4.1651 H   0  0  0  0  0  0  0  0  0  0  0  0
    6.2525   14.5842   -2.3227 H   0  0  0  0  0  0  0  0  0  0  0  0
   11.7223    7.0390   -2.8711 H   0  0  0  0  0  0  0  0  0  0  0  0
   12.1182    6.1403   -1.4174 H   0  0  0  0  0  0  0  0  0  0  0  0
   13.2338    7.3790   -1.9991 H   0  0  0  0  0  0  0  0  0  0  0  0
   11.1233    9.5018   -2.7767 H   0  0  0  0  0  0  0  0  0  0  0  0
   12.6207    9.8434   -1.8843 H   0  0  0  0  0  0  0  0  0  0  0  0
   11.0450   10.3369   -1.2332 H   0  0  0  0  0  0  0  0  0  0  0  0
   11.9935    7.4446    0.9418 H   0  0  0  0  0  0  0  0  0  0  0  0
   11.5126    9.1314    0.9142 H   0  0  0  0  0  0  0  0  0  0  0  0
   13.1054    8.6508    0.2924 H   0  0  0  0  0  0  0  0  0  0  0  0
  1  2  1  0  0  0  0
  1 47  1  0  0  0  0
  1 48  1  0  0  0  0
  1 49  1  0  0  0  0
  2  3  1  0  0  0  0
  2  4  1  0  0  0  0
  2  5  1  0  0  0  0
  3 50  1  0  0  0  0
  3 51  1  0  0  0  0
  3 52  1  0  0  0  0
  4 53  1  0  0  0  0
  4 54  1  0  0  0  0
  4 55  1  0  0  0  0
  5  6  1  0  0  0  0
  6  7  2  0  0  0  0
  6  8  1  0  0  0  0
  8  9  1  0  0  0  0
  8 56  1  0  0  0  0
  9 10  1  0  0  0  0
  9 21  1  0  0  0  0
  9 57  1  6  0  0  0
 10 11  1  0  0  0  0
 10 58  1  0  0  0  0
 10 59  1  0  0  0  0
 11 12  2  0  0  0  0
 11 13  1  0  0  0  0
 13 14  1  0  0  0  0
 14 15  1  0  0  0  0
 14 60  1  0  0  0  0
 14 61  1  0  0  0  0
 15 16  1  0  0  0  0
 15 20  2  0  0  0  0
 16 17  2  0  0  0  0
 16 62  1  0  0  0  0
 17 18  1  0  0  0  0
 17 63  1  0  0  0  0
 18 19  2  0  0  0  0
 18 64  1  0  0  0  0
 19 20  1  0  0  0  0
 19 65  1  0  0  0  0
 20 66  1  0  0  0  0
 21 22  2  0  0  0  0
 21 23  1  0  0  0  0
 23 24  1  0  0  0  0
 23 67  1  0  0  0  0
 24 25  1  0  0  0  0
 24 40  1  0  0  0  0
 24 68  1  6  0  0  0
 25 26  1  0  0  0  0
 25 69  1  0  0  0  0
 25 70  1  0  0  0  0
 26 27  1  0  0  0  0
 26 71  1  0  0  0  0
 26 72  1  0  0  0  0
 27 28  1  0  0  0  0
 27 73  1  0  0  0  0
 27 74  1  0  0  0  0
 28 29  1  0  0  0  0
 28 75  1  0  0  0  0
 28 76  1  0  0  0  0
 29 30  1  0  0  0  0
 29 77  1  0  0  0  0
 30 31  2  0  0  0  0
 30 32  1  0  0  0  0
 32 33  1  0  0  0  0
 33 34  1  0  0  0  0
 33 78  1  0  0  0  0
 33 79  1  0  0  0  0
 34 35  1  0  0  0  0
 34 39  2  0  0  0  0
 35 36  2  0  0  0  0
 35 80  1  0  0  0  0
 36 37  1  0  0  0  0
 36 81  1  0  0  0  0
 37 38  2  0  0  0  0
 37 82  1  0  0  0  0
 38 39  1  0  0  0  0
 38 83  1  0  0  0  0
 39 84  1  0  0  0  0
 40 41  2  0  0  0  0
 40 42  1  0  0  0  0
 42 43  1  0  0  0  0
 43 44  1  0  0  0  0
 43 45  1  0  0  0  0
 43 46  1  0  0  0  0
 44 85  1  0  0  0  0
 44 86  1  0  0  0  0
 44 87  1  0  0  0  0
 45 88  1  0  0  0  0
 45 89  1  0  0  0  0
 45 90  1  0  0  0  0
 46 91  1  0  0  0  0
 46 92  1  0  0  0  0
 46 93  1  0  0  0  0
M  END
>  <Energy>
-57.1059

$$$$