68
 OpenBabel03292021513D

174177  0  0  1  0  0  0  0  0999 V2000
    6.3857   -0.7811   -2.3517 C   0  0  0  0  0  0  0  0  0  0  0  0
    5.7922   -1.7355   -3.4119 C   0  0  0  0  0  0  0  0  0  0  0  0
    6.5292   -2.9792   -4.1674 C   0  0  2  0  0  0  0  0  0  0  0  0
    7.2223   -3.6201   -2.9407 C   0  0  0  0  0  0  0  0  0  0  0  0
    5.5171   -4.2160   -4.9860 C   0  0  2  0  0  0  0  0  0  0  0  0
    5.2022   -4.8067   -6.6106 N   0  0  0  0  0  0  0  0  0  0  0  0
    5.9699   -5.3838   -7.6916 C   0  0  0  0  0  0  0  0  0  0  0  0
    7.1976   -5.3806   -7.5415 O   0  0  0  0  0  0  0  0  0  0  0  0
    5.4671   -6.3974   -9.1557 C   0  0  2  0  0  0  0  0  0  0  0  0
    6.6987   -6.6718  -10.0733 C   0  0  0  0  0  0  0  0  0  0  0  0
    6.3958   -6.0584  -11.4633 C   0  0  0  0  0  0  0  0  0  0  0  0
    4.9626   -5.5575  -11.3582 C   0  0  0  0  0  0  0  0  0  0  0  0
    4.4297   -6.4631  -10.3589 N   0  0  0  0  0  0  0  0  0  0  0  0
    3.8481   -7.5937  -11.1109 C   0  0  0  0  0  0  0  0  0  0  0  0
    2.9152   -7.3381  -11.8944 O   0  0  0  0  0  0  0  0  0  0  0  0
    4.3467   -9.1388  -11.0539 C   0  0  2  0  0  0  0  0  0  0  0  0
    3.9049  -10.1152  -12.2000 C   0  0  0  0  0  0  0  0  0  0  0  0
    4.8041  -10.5618  -13.3404 C   0  0  0  0  0  0  0  0  0  0  0  0
    6.0436  -11.1844  -13.1191 C   0  0  0  0  0  0  0  0  0  0  0  0
    6.7215  -11.8259  -14.1689 C   0  0  0  0  0  0  0  0  0  0  0  0
    6.1690  -11.8633  -15.4481 C   0  0  0  0  0  0  0  0  0  0  0  0
    4.9372  -11.2611  -15.6809 C   0  0  0  0  0  0  0  0  0  0  0  0
    4.2617  -10.6208  -14.6367 C   0  0  0  0  0  0  0  0  0  0  0  0
    3.7901   -9.6762   -9.8134 N   0  0  0  0  0  0  0  0  0  0  0  0
    2.4152  -10.2002   -9.7342 C   0  0  0  0  0  0  0  0  0  0  0  0
    4.6633   -9.5839   -8.7271 C   0  0  0  0  0  0  0  0  0  0  0  0
    5.8360   -9.4324   -8.9626 O   0  0  0  0  0  0  0  0  0  0  0  0
    4.1433   -9.4560   -7.3113 C   0  0  2  0  0  0  0  0  0  0  0  0
    3.4001   -8.1128   -6.9571 C   0  0  0  0  0  0  0  0  0  0  0  0
    2.5023   -8.2876   -5.7280 C   0  0  0  0  0  0  0  0  0  0  0  0
    1.6298   -7.0610   -5.5162 C   0  0  0  0  0  0  0  0  0  0  0  0
    0.6184   -6.9141   -6.6422 C   0  0  0  0  0  0  0  0  0  0  0  0
    1.3265   -6.6390   -7.9382 C   0  0  0  0  0  0  0  0  0  0  0  0
    2.6200   -7.4059   -8.1069 C   0  0  0  0  0  0  0  0  0  0  0  0
    5.2488   -9.8440   -6.3674 N   0  0  0  0  0  0  0  0  0  0  0  0
    6.5760   -9.6125   -6.1153 C   0  0  0  0  0  0  0  0  0  0  0  0
    6.9055  -10.0948   -5.0129 O   0  0  0  0  0  0  0  0  0  0  0  0
    7.7093   -8.9579   -7.0596 C   0  0  2  0  0  0  0  0  0  0  0  0
    8.5667   -9.9955   -7.9164 C   0  0  0  0  0  0  0  0  0  0  0  0
    9.6221   -9.2577   -8.7706 C   0  0  0  0  0  0  0  0  0  0  0  0
    7.8772  -10.9996   -8.8458 C   0  0  0  0  0  0  0  0  0  0  0  0
    8.7424   -8.1532   -6.2539 N   0  0  0  0  0  0  0  0  0  0  0  0
    9.5251   -8.9420   -5.2945 C   0  0  0  0  0  0  0  0  0  0  0  0
    8.3830   -6.8726   -5.8190 C   0  0  0  0  0  0  0  0  0  0  0  0
    7.3056   -6.7559   -5.2267 O   0  0  0  0  0  0  0  0  0  0  0  0
    9.4173   -5.5941   -5.9518 C   0  0  1  0  0  0  0  0  0  0  0  0
   10.6350   -5.8639   -5.0139 C   0  0  1  0  0  0  0  0  0  0  0  0
   11.7202   -6.7185   -5.6784 C   0  0  0  0  0  0  0  0  0  0  0  0
   11.3319   -4.6381   -4.3932 C   0  0  0  0  0  0  0  0  0  0  0  0
   10.4347   -3.7367   -3.5736 C   0  0  0  0  0  0  0  0  0  0  0  0
    9.8026   -5.0836   -7.2819 O   0  0  0  0  0  0  0  0  0  0  0  0
    9.9235   -3.7092   -7.4922 C   0  0  0  0  0  0  0  0  0  0  0  0
   10.9306   -3.0890   -7.1652 O   0  0  0  0  0  0  0  0  0  0  0  0
    8.7612   -3.0434   -8.3279 C   0  0  2  0  0  0  0  0  0  0  0  0
    8.6608   -3.4026   -9.8476 C   0  0  0  0  0  0  0  0  0  0  0  0
    7.2239   -3.0543  -10.3093 C   0  0  0  0  0  0  0  0  0  0  0  0
    9.6500   -2.7678  -10.8203 C   0  0  0  0  0  0  0  0  0  0  0  0
    8.8703   -4.7917  -10.0805 O   0  0  0  0  0  0  0  0  0  0  0  0
    8.3371   -1.6115   -8.0382 N   0  0  0  0  0  0  0  0  0  0  0  0
    8.9572   -0.5387   -8.7991 C   0  0  0  0  0  0  0  0  0  0  0  0
    7.1398   -1.4389   -7.3404 C   0  0  0  0  0  0  0  0  0  0  0  0
    6.5463   -2.4222   -6.9053 O   0  0  0  0  0  0  0  0  0  0  0  0
    6.5168   -0.0636   -7.0616 C   0  0  2  0  0  0  0  0  0  0  0  0
    7.0762    0.6376   -5.7990 C   0  0  0  0  0  0  0  0  0  0  0  0
    8.5884    0.9705   -5.6689 C   0  0  0  0  0  0  0  0  0  0  0  0
    8.7993    1.9402   -4.4952 C   0  0  0  0  0  0  0  0  0  0  0  0
    9.5068   -0.2260   -5.3962 C   0  0  0  0  0  0  0  0  0  0  0  0
    4.9717   -0.0653   -7.0687 N   0  0  0  0  0  0  0  0  0  0  0  0
    4.0405   -0.5339   -6.1516 C   0  0  0  0  0  0  0  0  0  0  0  0
    3.3331    0.3289   -5.6156 O   0  0  0  0  0  0  0  0  0  0  0  0
    3.6997   -2.0697   -5.9671 C   0  0  2  0  0  0  0  0  0  0  0  0
    2.4036   -2.4836   -6.7384 C   0  0  0  0  0  0  0  0  0  0  0  0
    1.5278   -3.5331   -6.0198 C   0  0  0  0  0  0  0  0  0  0  0  0
    2.7953   -3.0735   -8.0920 C   0  0  0  0  0  0  0  0  0  0  0  0
    3.5836   -2.6238   -4.6006 N   0  0  0  0  0  0  0  0  0  0  0  0
    2.7267   -1.9341   -3.6151 C   0  0  0  0  0  0  0  0  0  0  0  0
    4.1693   -3.8702   -4.2779 C   0  0  0  0  0  0  0  0  0  0  0  0
    3.7561   -4.5668   -3.3482 O   0  0  0  0  0  0  0  0  0  0  0  0
    5.6430    0.0140   -2.1513 H   0  0  0  0  0  0  0  0  0  0  0  0
    7.3071   -0.2841   -2.6468 H   0  0  0  0  0  0  0  0  0  0  0  0
    6.5227   -1.2736   -1.3820 H   0  0  0  0  0  0  0  0  0  0  0  0
    5.3579   -1.0783   -4.1556 H   0  0  0  0  0  0  0  0  0  0  0  0
    5.0059   -2.1743   -2.7952 H   0  0  0  0  0  0  0  0  0  0  0  0
    7.3131   -2.6041   -4.8235 H   0  0  0  0  0  0  0  0  0  0  0  0
    6.4997   -3.8558   -2.1491 H   0  0  0  0  0  0  0  0  0  0  0  0
    7.9372   -2.9099   -2.4930 H   0  0  0  0  0  0  0  0  0  0  0  0
    7.7589   -4.5263   -3.1999 H   0  0  0  0  0  0  0  0  0  0  0  0
    5.8822   -5.1368   -4.5289 H   0  0  0  0  0  0  0  0  0  0  0  0
    4.2831   -5.2116   -6.5815 H   0  0  0  0  0  0  0  0  0  0  0  0
    5.2814   -7.3053   -8.6151 H   0  0  0  0  0  0  0  0  0  0  0  0
    6.8013   -7.7455  -10.2545 H   0  0  0  0  0  0  0  0  0  0  0  0
    7.6466   -6.4166   -9.6341 H   0  0  0  0  0  0  0  0  0  0  0  0
    6.4589   -6.8475  -12.2283 H   0  0  0  0  0  0  0  0  0  0  0  0
    7.0945   -5.2961  -11.7999 H   0  0  0  0  0  0  0  0  0  0  0  0
    4.4547   -5.6025  -12.3341 H   0  0  0  0  0  0  0  0  0  0  0  0
    4.8837   -4.5351  -10.9881 H   0  0  0  0  0  0  0  0  0  0  0  0
    5.4327   -9.1021  -11.0698 H   0  0  0  0  0  0  0  0  0  0  0  0
    3.7267  -11.0939  -11.7330 H   0  0  0  0  0  0  0  0  0  0  0  0
    2.9279   -9.8113  -12.5910 H   0  0  0  0  0  0  0  0  0  0  0  0
    6.4678  -11.2447  -12.1188 H   0  0  0  0  0  0  0  0  0  0  0  0
    7.6675  -12.3307  -13.9830 H   0  0  0  0  0  0  0  0  0  0  0  0
    6.6834  -12.3806  -16.2553 H   0  0  0  0  0  0  0  0  0  0  0  0
    4.4831  -11.3170  -16.6673 H   0  0  0  0  0  0  0  0  0  0  0  0
    3.2702  -10.2172  -14.8332 H   0  0  0  0  0  0  0  0  0  0  0  0
    2.4132  -11.2270  -10.1503 H   0  0  0  0  0  0  0  0  0  0  0  0
    1.7733   -9.5685  -10.3582 H   0  0  0  0  0  0  0  0  0  0  0  0
    2.0414  -10.2536   -8.7397 H   0  0  0  0  0  0  0  0  0  0  0  0
    3.4231  -10.2792   -7.1710 H   0  0  0  0  0  0  0  0  0  0  0  0
    4.1869   -7.4085   -6.6564 H   0  0  0  0  0  0  0  0  0  0  0  0
    3.1353   -8.4294   -4.8463 H   0  0  0  0  0  0  0  0  0  0  0  0
    1.8698   -9.1744   -5.8348 H   0  0  0  0  0  0  0  0  0  0  0  0
    2.3038   -6.2062   -5.4857 H   0  0  0  0  0  0  0  0  0  0  0  0
    1.1131   -7.1032   -4.5574 H   0  0  0  0  0  0  0  0  0  0  0  0
   -0.0844   -6.0975   -6.4392 H   0  0  0  0  0  0  0  0  0  0  0  0
    0.0253   -7.8283   -6.7473 H   0  0  0  0  0  0  0  0  0  0  0  0
    1.5402   -5.5675   -8.0251 H   0  0  0  0  0  0  0  0  0  0  0  0
    0.6559   -6.8362   -8.7919 H   0  0  0  0  0  0  0  0  0  0  0  0
    3.2717   -6.6336   -8.4782 H   0  0  0  0  0  0  0  0  0  0  0  0
    2.4180   -8.0650   -8.9264 H   0  0  0  0  0  0  0  0  0  0  0  0
    4.8872  -10.2823   -5.5269 H   0  0  0  0  0  0  0  0  0  0  0  0
    7.2304   -8.2181   -7.6990 H   0  0  0  0  0  0  0  0  0  0  0  0
    9.1127  -10.6298   -7.2100 H   0  0  0  0  0  0  0  0  0  0  0  0
    9.1499   -8.5507   -9.4605 H   0  0  0  0  0  0  0  0  0  0  0  0
   10.2089   -9.9661   -9.3670 H   0  0  0  0  0  0  0  0  0  0  0  0
   10.3368   -8.7044   -8.1566 H   0  0  0  0  0  0  0  0  0  0  0  0
    7.5859  -10.5444   -9.8001 H   0  0  0  0  0  0  0  0  0  0  0  0
    7.0197  -11.4866   -8.3770 H   0  0  0  0  0  0  0  0  0  0  0  0
    8.5819  -11.7942   -9.1210 H   0  0  0  0  0  0  0  0  0  0  0  0
    9.1228   -9.9443   -5.1498 H   0  0  0  0  0  0  0  0  0  0  0  0
    9.5664   -8.4612   -4.3206 H   0  0  0  0  0  0  0  0  0  0  0  0
   10.5268   -9.0864   -5.6995 H   0  0  0  0  0  0  0  0  0  0  0  0
    8.8214   -4.7889   -5.5058 H   0  0  0  0  0  0  0  0  0  0  0  0
   10.2425   -6.4266   -4.1548 H   0  0  0  0  0  0  0  0  0  0  0  0
   12.5855   -6.1257   -5.9869 H   0  0  0  0  0  0  0  0  0  0  0  0
   11.3578   -7.2434   -6.5638 H   0  0  0  0  0  0  0  0  0  0  0  0
   12.0828   -7.4664   -4.9617 H   0  0  0  0  0  0  0  0  0  0  0  0
   11.8362   -4.0482   -5.1606 H   0  0  0  0  0  0  0  0  0  0  0  0
   12.1217   -5.0015   -3.7218 H   0  0  0  0  0  0  0  0  0  0  0  0
    9.6734   -3.2643   -4.1968 H   0  0  0  0  0  0  0  0  0  0  0  0
   11.0180   -2.9362   -3.1095 H   0  0  0  0  0  0  0  0  0  0  0  0
    9.9555   -4.3029   -2.7693 H   0  0  0  0  0  0  0  0  0  0  0  0
    7.9552   -3.5905   -7.8881 H   0  0  0  0  0  0  0  0  0  0  0  0
    7.0341   -3.3601  -11.3378 H   0  0  0  0  0  0  0  0  0  0  0  0
    7.0074   -1.9842  -10.2732 H   0  0  0  0  0  0  0  0  0  0  0  0
    6.4798   -3.5493   -9.6764 H   0  0  0  0  0  0  0  0  0  0  0  0
    9.5923   -3.2866  -11.7900 H   0  0  0  0  0  0  0  0  0  0  0  0
   10.6773   -2.8868  -10.4701 H   0  0  0  0  0  0  0  0  0  0  0  0
    9.4489   -1.7194  -11.0338 H   0  0  0  0  0  0  0  0  0  0  0  0
    9.5354   -5.1492   -9.4630 H   0  0  0  0  0  0  0  0  0  0  0  0
   10.0018   -0.7781   -9.0068 H   0  0  0  0  0  0  0  0  0  0  0  0
    8.9180    0.4073   -8.2716 H   0  0  0  0  0  0  0  0  0  0  0  0
    8.3932   -0.3903   -9.7242 H   0  0  0  0  0  0  0  0  0  0  0  0
    6.7421    0.5677   -7.9270 H   0  0  0  0  0  0  0  0  0  0  0  0
    6.5261    1.5851   -5.7049 H   0  0  0  0  0  0  0  0  0  0  0  0
    6.8080    0.0590   -4.9229 H   0  0  0  0  0  0  0  0  0  0  0  0
    8.9205    1.4984   -6.5677 H   0  0  0  0  0  0  0  0  0  0  0  0
    8.5632    1.4581   -3.5409 H   0  0  0  0  0  0  0  0  0  0  0  0
    8.1755    2.8316   -4.5963 H   0  0  0  0  0  0  0  0  0  0  0  0
    9.8452    2.2659   -4.4516 H   0  0  0  0  0  0  0  0  0  0  0  0
    9.1561   -0.8144   -4.5415 H   0  0  0  0  0  0  0  0  0  0  0  0
   10.5266    0.1090   -5.1776 H   0  0  0  0  0  0  0  0  0  0  0  0
    9.6067   -0.8986   -6.2382 H   0  0  0  0  0  0  0  0  0  0  0  0
    4.6949    0.9001   -7.2035 H   0  0  0  0  0  0  0  0  0  0  0  0
    4.5129   -2.5805   -6.4448 H   0  0  0  0  0  0  0  0  0  0  0  0
    1.7800   -1.5998   -6.9009 H   0  0  0  0  0  0  0  0  0  0  0  0
    0.9879   -3.1530   -5.1512 H   0  0  0  0  0  0  0  0  0  0  0  0
    2.1514   -4.3476   -5.6648 H   0  0  0  0  0  0  0  0  0  0  0  0
    0.7706   -3.9581   -6.6753 H   0  0  0  0  0  0  0  0  0  0  0  0
    3.5448   -2.4611   -8.5970 H   0  0  0  0  0  0  0  0  0  0  0  0
    1.9173   -3.1701   -8.7334 H   0  0  0  0  0  0  0  0  0  0  0  0
    3.2125   -4.0762   -7.9744 H   0  0  0  0  0  0  0  0  0  0  0  0
    1.7285   -1.7440   -4.0012 H   0  0  0  0  0  0  0  0  0  0  0  0
    3.1622   -0.9591   -3.3709 H   0  0  0  0  0  0  0  0  0  0  0  0
    2.6540   -2.5052   -2.6833 H   0  0  0  0  0  0  0  0  0  0  0  0
  1  2  1  0  0  0  0
  1 79  1  0  0  0  0
  1 80  1  0  0  0  0
  1 81  1  0  0  0  0
  2 82  1  0  0  0  0
  2 83  1  0  0  0  0
  3  4  1  0  0  0  0
  3  2  1  0  0  0  0
  3 84  1  1  0  0  0
  4 85  1  0  0  0  0
  4 86  1  0  0  0  0
  4 87  1  0  0  0  0
  5  6  1  0  0  0  0
  5 77  1  0  0  0  0
  5  3  1  0  0  0  0
  5 88  1  1  0  0  0
  6  7  1  0  0  0  0
  6 89  1  0  0  0  0
  7  8  2  0  0  0  0
  7  9  1  0  0  0  0
  9 10  1  0  0  0  0
  9 13  1  0  0  0  0
  9 90  1  1  0  0  0
 10 11  1  0  0  0  0
 10 91  1  0  0  0  0
 10 92  1  0  0  0  0
 11 12  1  0  0  0  0
 11 93  1  0  0  0  0
 11 94  1  0  0  0  0
 12 13  1  0  0  0  0
 12 95  1  0  0  0  0
 12 96  1  0  0  0  0
 13 14  1  0  0  0  0
 14 15  2  0  0  0  0
 14 16  1  0  0  0  0
 16 24  1  0  0  0  0
 16 17  1  0  0  0  0
 16 97  1  1  0  0  0
 17 18  1  0  0  0  0
 17 98  1  0  0  0  0
 17 99  1  0  0  0  0
 18 19  1  0  0  0  0
 18 23  2  0  0  0  0
 19 20  2  0  0  0  0
 19100  1  0  0  0  0
 20 21  1  0  0  0  0
 20101  1  0  0  0  0
 21 22  2  0  0  0  0
 21102  1  0  0  0  0
 22 23  1  0  0  0  0
 22103  1  0  0  0  0
 23104  1  0  0  0  0
 24 25  1  0  0  0  0
 24 26  1  0  0  0  0
 25105  1  0  0  0  0
 25106  1  0  0  0  0
 25107  1  0  0  0  0
 26 27  2  0  0  0  0
 26 28  1  0  0  0  0
 28 35  1  0  0  0  0
 28 29  1  0  0  0  0
 28108  1  1  0  0  0
 29 30  1  0  0  0  0
 29 34  1  0  0  0  0
 29109  1  0  0  0  0
 30 31  1  0  0  0  0
 30110  1  0  0  0  0
 30111  1  0  0  0  0
 31 32  1  0  0  0  0
 31112  1  0  0  0  0
 31113  1  0  0  0  0
 32 33  1  0  0  0  0
 32114  1  0  0  0  0
 32115  1  0  0  0  0
 33 34  1  0  0  0  0
 33116  1  0  0  0  0
 33117  1  0  0  0  0
 34118  1  0  0  0  0
 34119  1  0  0  0  0
 35 36  1  0  0  0  0
 35120  1  0  0  0  0
 36 37  2  0  0  0  0
 36 38  1  0  0  0  0
 38 42  1  0  0  0  0
 38 39  1  0  0  0  0
 38121  1  6  0  0  0
 39 40  1  0  0  0  0
 39 41  1  0  0  0  0
 39122  1  0  0  0  0
 40123  1  0  0  0  0
 40124  1  0  0  0  0
 40125  1  0  0  0  0
 41126  1  0  0  0  0
 41127  1  0  0  0  0
 41128  1  0  0  0  0
 42 43  1  0  0  0  0
 42 44  1  0  0  0  0
 43129  1  0  0  0  0
 43130  1  0  0  0  0
 43131  1  0  0  0  0
 44 45  2  0  0  0  0
 44 46  1  0  0  0  0
 46 47  1  0  0  0  0
 46 51  1  0  0  0  0
 46132  1  1  0  0  0
 47 48  1  0  0  0  0
 47 49  1  0  0  0  0
 47133  1  1  0  0  0
 48134  1  0  0  0  0
 48135  1  0  0  0  0
 48136  1  0  0  0  0
 49 50  1  0  0  0  0
 49137  1  0  0  0  0
 49138  1  0  0  0  0
 50139  1  0  0  0  0
 50140  1  0  0  0  0
 50141  1  0  0  0  0
 51 52  1  0  0  0  0
 52 53  2  0  0  0  0
 52 54  1  0  0  0  0
 54 59  1  0  0  0  0
 54 55  1  0  0  0  0
 54142  1  1  0  0  0
 55 56  1  0  0  0  0
 55 57  1  0  0  0  0
 55 58  1  0  0  0  0
 56143  1  0  0  0  0
 56144  1  0  0  0  0
 56145  1  0  0  0  0
 57146  1  0  0  0  0
 57147  1  0  0  0  0
 57148  1  0  0  0  0
 58149  1  0  0  0  0
 59 60  1  0  0  0  0
 59 61  1  0  0  0  0
 60150  1  0  0  0  0
 60151  1  0  0  0  0
 60152  1  0  0  0  0
 61 62  2  0  0  0  0
 61 63  1  0  0  0  0
 63 68  1  0  0  0  0
 63 64  1  0  0  0  0
 63153  1  6  0  0  0
 64 65  1  0  0  0  0
 64154  1  0  0  0  0
 64155  1  0  0  0  0
 65 66  1  0  0  0  0
 65 67  1  0  0  0  0
 65156  1  0  0  0  0
 66157  1  0  0  0  0
 66158  1  0  0  0  0
 66159  1  0  0  0  0
 67160  1  0  0  0  0
 67161  1  0  0  0  0
 67162  1  0  0  0  0
 68 69  1  0  0  0  0
 68163  1  0  0  0  0
 69 70  2  0  0  0  0
 69 71  1  0  0  0  0
 71 75  1  0  0  0  0
 71 72  1  0  0  0  0
 71164  1  6  0  0  0
 72 73  1  0  0  0  0
 72 74  1  0  0  0  0
 72165  1  0  0  0  0
 73166  1  0  0  0  0
 73167  1  0  0  0  0
 73168  1  0  0  0  0
 74169  1  0  0  0  0
 74170  1  0  0  0  0
 74171  1  0  0  0  0
 75 76  1  0  0  0  0
 75 77  1  0  0  0  0
 76172  1  0  0  0  0
 76173  1  0  0  0  0
 76174  1  0  0  0  0
 77 78  2  0  0  0  0
M  END
>  <Energy>
667.463

$$$$