69
 OpenBabel03292021513D

195196  0  0  1  0  0  0  0  0999 V2000
    4.5876    1.4702    4.5478 C   0  0  0  0  0  0  0  0  0  0  0  0
    5.7880    2.0145    5.3896 C   0  0  0  0  0  0  0  0  0  0  0  0
    7.3260    2.4143    4.8188 C   0  0  2  0  0  0  0  0  0  0  0  0
    8.3068    3.1965    6.2310 N   0  0  0  0  0  0  0  0  0  0  0  0
    9.7076    3.9510    6.5307 C   0  0  0  0  0  0  0  0  0  0  0  0
   10.5082    3.7409    5.5946 O   0  0  0  0  0  0  0  0  0  0  0  0
   10.5200    4.6214    8.1609 C   0  0  2  0  0  0  0  0  0  0  0  0
   11.1354    6.1505    9.0775 C   0  0  3  0  0  0  0  0  0  0  0  0
   12.2612    6.0712   10.3798 C   0  0  0  0  0  0  0  0  0  0  0  0
   12.6375    7.4170   11.1698 C   0  0  0  0  0  0  0  0  0  0  0  0
   12.7711    8.6865   10.3324 C   0  0  0  0  0  0  0  0  0  0  0  0
   11.7550    8.6711    9.1963 C   0  0  0  0  0  0  0  0  0  0  0  0
   11.8259    7.3472    8.3489 C   0  0  3  0  0  0  0  0  0  0  0  0
   11.2764    7.5213    6.9727 C   0  0  0  0  0  0  0  0  0  0  0  0
   11.7323    3.7440    8.4635 N   0  0  0  0  0  0  0  0  0  0  0  0
   13.0098    4.0660    7.7819 C   0  0  0  0  0  0  0  0  0  0  0  0
   11.7774    2.8819    9.5625 C   0  0  0  0  0  0  0  0  0  0  0  0
   12.7377    2.7966   10.3969 O   0  0  0  0  0  0  0  0  0  0  0  0
   10.6558    1.7948    9.3868 C   0  0  2  0  0  0  0  0  0  0  0  0
    9.3207    2.0768   10.1442 C   0  0  0  0  0  0  0  0  0  0  0  0
    9.3102    2.0844   11.6687 C   0  0  0  0  0  0  0  0  0  0  0  0
    8.2331    1.1629    9.5740 C   0  0  0  0  0  0  0  0  0  0  0  0
   11.2941    0.5065    9.4635 N   0  0  0  0  0  0  0  0  0  0  0  0
   11.4651   -0.1277   10.7546 C   0  0  0  0  0  0  0  0  0  0  0  0
   12.1026    0.1738    8.3593 C   0  0  0  0  0  0  0  0  0  0  0  0
   12.2138    0.9293    7.3857 O   0  0  0  0  0  0  0  0  0  0  0  0
   12.7187   -1.2381    8.2822 C   0  0  2  0  0  0  0  0  0  0  0  0
   14.2094   -1.2534    7.8940 C   0  0  0  0  0  0  0  0  0  0  0  0
   15.1389   -0.6142    8.9429 C   0  0  0  0  0  0  0  0  0  0  0  0
   15.0894   -1.3120   10.3031 C   0  0  0  0  0  0  0  0  0  0  0  0
   16.5855   -0.6535    8.4449 C   0  0  0  0  0  0  0  0  0  0  0  0
   11.9008   -2.0310    7.3309 N   0  0  0  0  0  0  0  0  0  0  0  0
   11.8652   -1.6056    5.9275 C   0  0  0  0  0  0  0  0  0  0  0  0
   10.9745   -2.8881    7.9141 C   0  0  0  0  0  0  0  0  0  0  0  0
   10.9855   -3.0790    9.1359 O   0  0  0  0  0  0  0  0  0  0  0  0
    9.9904   -3.6957    7.0297 C   0  0  2  0  0  0  0  0  0  0  0  0
    8.5134   -3.4246    7.3831 C   0  0  0  0  0  0  0  0  0  0  0  0
    8.0236   -1.9776    7.2212 C   0  0  0  0  0  0  0  0  0  0  0  0
    8.0476   -1.4982    5.7771 C   0  0  0  0  0  0  0  0  0  0  0  0
    6.5809   -1.8648    7.7297 C   0  0  0  0  0  0  0  0  0  0  0  0
   10.3062   -5.1455    7.2142 N   0  0  0  0  0  0  0  0  0  0  0  0
   10.2267   -5.7090    8.5556 C   0  0  0  0  0  0  0  0  0  0  0  0
   10.3524   -5.9481    6.0857 C   0  0  0  0  0  0  0  0  0  0  0  0
    9.8772   -5.5303    5.0220 O   0  0  0  0  0  0  0  0  0  0  0  0
   11.2268   -7.2460    6.0821 C   0  0  1  0  0  0  0  0  0  0  0  0
   11.2475   -8.1810    7.2846 C   0  0  0  0  0  0  0  0  0  0  0  0
   10.8635   -8.0486    4.9139 N   0  0  0  0  0  0  0  0  0  0  0  0
   11.4181   -8.0059    3.6708 C   0  0  0  0  0  0  0  0  0  0  0  0
   11.4422   -9.0896    3.0694 O   0  0  0  0  0  0  0  0  0  0  0  0
   11.7744   -6.6646    2.9573 C   0  0  1  0  0  0  0  0  0  0  0  0
   12.7824   -5.7740    3.6777 C   0  0  0  0  0  0  0  0  0  0  0  0
   12.3555   -6.9844    1.6423 N   0  0  0  0  0  0  0  0  0  0  0  0
   11.8902   -7.4015    0.4443 C   0  0  0  0  0  0  0  0  0  0  0  0
   12.8016   -7.5090   -0.3956 O   0  0  0  0  0  0  0  0  0  0  0  0
   10.4008   -7.7826    0.0546 C   0  0  1  0  0  0  0  0  0  0  0  0
    9.3416   -7.4379    1.1005 C   0  0  0  0  0  0  0  0  0  0  0  0
    7.9916   -8.1800    1.1017 C   0  0  0  0  0  0  0  0  0  0  0  0
    8.1182   -9.6565    1.4777 C   0  0  0  0  0  0  0  0  0  0  0  0
    7.0486   -7.4246    2.0377 C   0  0  0  0  0  0  0  0  0  0  0  0
   10.1939   -7.1959   -1.3271 N   0  0  0  0  0  0  0  0  0  0  0  0
   10.8371   -8.0348   -2.3518 C   0  0  0  0  0  0  0  0  0  0  0  0
    8.9307   -6.7323   -1.7379 C   0  0  0  0  0  0  0  0  0  0  0  0
    7.9456   -7.4699   -1.7467 O   0  0  0  0  0  0  0  0  0  0  0  0
    8.8446   -5.3391   -2.4615 C   0  0  1  0  0  0  0  0  0  0  0  0
    9.4415   -5.4961   -3.9002 C   0  0  0  0  0  0  0  0  0  0  0  0
    8.8479   -6.6680   -4.6994 C   0  0  0  0  0  0  0  0  0  0  0  0
    9.3451   -4.2267   -4.7448 C   0  0  0  0  0  0  0  0  0  0  0  0
    7.4159   -4.8401   -2.5254 N   0  0  0  0  0  0  0  0  0  0  0  0
    6.5243   -4.1032   -1.7764 C   0  0  0  0  0  0  0  0  0  0  0  0
    5.3952   -3.9866   -2.2854 O   0  0  0  0  0  0  0  0  0  0  0  0
    6.7449   -3.5394   -0.3033 C   0  0  1  0  0  0  0  0  0  0  0  0
    8.1744   -3.7555    0.1545 C   0  0  0  0  0  0  0  0  0  0  0  0
    8.5596   -3.1868    1.5206 C   0  0  0  0  0  0  0  0  0  0  0  0
    8.0352   -4.0210    2.6771 C   0  0  0  0  0  0  0  0  0  0  0  0
   10.0729   -3.0107    1.5101 C   0  0  0  0  0  0  0  0  0  0  0  0
    6.2200   -2.1599    0.1404 N   0  0  0  0  0  0  0  0  0  0  0  0
    4.7776   -2.0037    0.0833 C   0  0  0  0  0  0  0  0  0  0  0  0
    7.0268   -1.0371   -0.0957 C   0  0  0  0  0  0  0  0  0  0  0  0
    7.8318   -1.1177   -1.0439 O   0  0  0  0  0  0  0  0  0  0  0  0
    7.1672    0.3394    0.8451 C   0  0  0  0  0  0  0  0  0  0  0  0
    6.6112    1.1638    2.0728 N   0  0  0  0  0  0  0  0  0  0  0  0
    5.4241    1.9040    1.6066 C   0  0  0  0  0  0  0  0  0  0  0  0
    7.5296    1.4629    3.2289 C   0  0  0  0  0  0  0  0  0  0  0  0
    8.5921    0.8104    3.1884 O   0  0  0  0  0  0  0  0  0  0  0  0
    4.8393    0.6889    3.8232 H   0  0  0  0  0  0  0  0  0  0  0  0
    3.9979    2.2615    4.0679 H   0  0  0  0  0  0  0  0  0  0  0  0
    3.8504    0.9769    5.2031 H   0  0  0  0  0  0  0  0  0  0  0  0
    5.9555    1.1838    6.0878 H   0  0  0  0  0  0  0  0  0  0  0  0
    5.3938    2.8411    5.9867 H   0  0  0  0  0  0  0  0  0  0  0  0
    7.7940    1.5082    5.2373 H   0  0  0  0  0  0  0  0  0  0  0  0
    8.3181    2.4382    6.8925 H   0  0  0  0  0  0  0  0  0  0  0  0
    9.7280    4.3797    8.8707 H   0  0  0  0  0  0  0  0  0  0  0  0
   10.2279    6.5199    9.5764 H   0  0  0  0  0  0  0  0  0  0  0  0
   13.2442    5.7675    9.9950 H   0  0  0  0  0  0  0  0  0  0  0  0
   11.9807    5.3324   11.1339 H   0  0  0  0  0  0  0  0  0  0  0  0
   13.5937    7.2985   11.7161 H   0  0  0  0  0  0  0  0  0  0  0  0
   11.9006    7.6064   11.9600 H   0  0  0  0  0  0  0  0  0  0  0  0
   13.7932    8.7988    9.9389 H   0  0  0  0  0  0  0  0  0  0  0  0
   12.6315    9.5804   10.9682 H   0  0  0  0  0  0  0  0  0  0  0  0
   11.9415    9.5569    8.5765 H   0  0  0  0  0  0  0  0  0  0  0  0
   10.7598    8.8002    9.6395 H   0  0  0  0  0  0  0  0  0  0  0  0
   12.9043    7.1432    8.2353 H   0  0  0  0  0  0  0  0  0  0  0  0
   10.1875    7.5496    7.0049 H   0  0  0  0  0  0  0  0  0  0  0  0
   11.6084    6.6735    6.3686 H   0  0  0  0  0  0  0  0  0  0  0  0
   11.6617    8.4369    6.5170 H   0  0  0  0  0  0  0  0  0  0  0  0
   13.5619    4.8049    8.3354 H   0  0  0  0  0  0  0  0  0  0  0  0
   12.8045    4.4233    6.7751 H   0  0  0  0  0  0  0  0  0  0  0  0
   13.5973    3.1592    7.7476 H   0  0  0  0  0  0  0  0  0  0  0  0
   10.3627    1.9132    8.3464 H   0  0  0  0  0  0  0  0  0  0  0  0
    8.9826    3.0824    9.9000 H   0  0  0  0  0  0  0  0  0  0  0  0
    9.2194    1.0795   12.0877 H   0  0  0  0  0  0  0  0  0  0  0  0
    8.4381    2.6456   12.0279 H   0  0  0  0  0  0  0  0  0  0  0  0
   10.1973    2.5796   12.0753 H   0  0  0  0  0  0  0  0  0  0  0  0
    8.4330    0.1131    9.7952 H   0  0  0  0  0  0  0  0  0  0  0  0
    8.1779    1.2668    8.4864 H   0  0  0  0  0  0  0  0  0  0  0  0
    7.2484    1.4287    9.9687 H   0  0  0  0  0  0  0  0  0  0  0  0
   11.1426    0.5108   11.5697 H   0  0  0  0  0  0  0  0  0  0  0  0
   12.5165   -0.3113   10.9435 H   0  0  0  0  0  0  0  0  0  0  0  0
   10.8942   -1.0562   10.7660 H   0  0  0  0  0  0  0  0  0  0  0  0
   12.6507   -1.7087    9.2558 H   0  0  0  0  0  0  0  0  0  0  0  0
   14.5133   -2.2971    7.7332 H   0  0  0  0  0  0  0  0  0  0  0  0
   14.3687   -0.7402    6.9382 H   0  0  0  0  0  0  0  0  0  0  0  0
   14.8468    0.4360    9.0688 H   0  0  0  0  0  0  0  0  0  0  0  0
   15.5167   -2.3177   10.2520 H   0  0  0  0  0  0  0  0  0  0  0  0
   14.0825   -1.4285   10.6917 H   0  0  0  0  0  0  0  0  0  0  0  0
   15.6464   -0.7323   11.0460 H   0  0  0  0  0  0  0  0  0  0  0  0
   16.9343   -1.6877    8.3412 H   0  0  0  0  0  0  0  0  0  0  0  0
   17.2477   -0.1455    9.1536 H   0  0  0  0  0  0  0  0  0  0  0  0
   16.6867   -0.1627    7.4726 H   0  0  0  0  0  0  0  0  0  0  0  0
   12.7042   -0.9526    5.6710 H   0  0  0  0  0  0  0  0  0  0  0  0
   10.9473   -1.0478    5.7435 H   0  0  0  0  0  0  0  0  0  0  0  0
   11.9112   -2.4785    5.2741 H   0  0  0  0  0  0  0  0  0  0  0  0
   10.1485   -3.4426    5.9810 H   0  0  0  0  0  0  0  0  0  0  0  0
    7.8847   -4.0850    6.7712 H   0  0  0  0  0  0  0  0  0  0  0  0
    8.3290   -3.7150    8.4239 H   0  0  0  0  0  0  0  0  0  0  0  0
    8.6550   -1.3170    7.8269 H   0  0  0  0  0  0  0  0  0  0  0  0
    7.3512   -2.0658    5.1554 H   0  0  0  0  0  0  0  0  0  0  0  0
    9.0328   -1.5668    5.3220 H   0  0  0  0  0  0  0  0  0  0  0  0
    7.7406   -0.4547    5.7394 H   0  0  0  0  0  0  0  0  0  0  0  0
    5.9019   -2.4645    7.1119 H   0  0  0  0  0  0  0  0  0  0  0  0
    6.2354   -0.8264    7.6927 H   0  0  0  0  0  0  0  0  0  0  0  0
    6.4931   -2.2123    8.7634 H   0  0  0  0  0  0  0  0  0  0  0  0
    9.7769   -5.0245    9.2750 H   0  0  0  0  0  0  0  0  0  0  0  0
   11.2325   -5.9573    8.8970 H   0  0  0  0  0  0  0  0  0  0  0  0
    9.5820   -6.5899    8.5393 H   0  0  0  0  0  0  0  0  0  0  0  0
   12.2613   -6.9217    5.9381 H   0  0  0  0  0  0  0  0  0  0  0  0
   10.2459   -8.3919    7.6658 H   0  0  0  0  0  0  0  0  0  0  0  0
   11.8699   -7.7805    8.0896 H   0  0  0  0  0  0  0  0  0  0  0  0
   11.6967   -9.1462    7.0189 H   0  0  0  0  0  0  0  0  0  0  0  0
   10.4718   -8.9634    5.1056 H   0  0  0  0  0  0  0  0  0  0  0  0
   10.8619   -6.0920    2.7827 H   0  0  0  0  0  0  0  0  0  0  0  0
   13.6697   -6.3419    3.9753 H   0  0  0  0  0  0  0  0  0  0  0  0
   12.3745   -5.2904    4.5651 H   0  0  0  0  0  0  0  0  0  0  0  0
   13.1105   -4.9592    3.0213 H   0  0  0  0  0  0  0  0  0  0  0  0
   13.3653   -6.9215    1.5937 H   0  0  0  0  0  0  0  0  0  0  0  0
   10.4066   -8.8745   -0.0543 H   0  0  0  0  0  0  0  0  0  0  0  0
    9.2032   -6.3598    1.1030 H   0  0  0  0  0  0  0  0  0  0  0  0
    9.7262   -7.6818    2.0798 H   0  0  0  0  0  0  0  0  0  0  0  0
    7.5110   -8.1659    0.1350 H   0  0  0  0  0  0  0  0  0  0  0  0
    8.4377   -9.7923    2.5148 H   0  0  0  0  0  0  0  0  0  0  0  0
    8.8334  -10.1712    0.8280 H   0  0  0  0  0  0  0  0  0  0  0  0
    7.1540  -10.1620    1.3504 H   0  0  0  0  0  0  0  0  0  0  0  0
    7.4481   -7.3681    3.0556 H   0  0  0  0  0  0  0  0  0  0  0  0
    6.0553   -7.8781    2.0685 H   0  0  0  0  0  0  0  0  0  0  0  0
    6.9227   -6.4025    1.6662 H   0  0  0  0  0  0  0  0  0  0  0  0
   11.5496   -8.7500   -1.9301 H   0  0  0  0  0  0  0  0  0  0  0  0
   11.3835   -7.4011   -3.0524 H   0  0  0  0  0  0  0  0  0  0  0  0
   10.0869   -8.6231   -2.8818 H   0  0  0  0  0  0  0  0  0  0  0  0
    9.4557   -4.6148   -1.9232 H   0  0  0  0  0  0  0  0  0  0  0  0
   10.5164   -5.6860   -3.7784 H   0  0  0  0  0  0  0  0  0  0  0  0
    7.8637   -6.4219   -5.1069 H   0  0  0  0  0  0  0  0  0  0  0  0
    8.7214   -7.5766   -4.1107 H   0  0  0  0  0  0  0  0  0  0  0  0
    9.5091   -6.9334   -5.5314 H   0  0  0  0  0  0  0  0  0  0  0  0
    8.3220   -4.0569   -5.0951 H   0  0  0  0  0  0  0  0  0  0  0  0
    9.9837   -4.3194   -5.6319 H   0  0  0  0  0  0  0  0  0  0  0  0
    9.6748   -3.3472   -4.1853 H   0  0  0  0  0  0  0  0  0  0  0  0
    6.9172   -5.2296   -3.3172 H   0  0  0  0  0  0  0  0  0  0  0  0
    6.1354   -4.2400    0.2940 H   0  0  0  0  0  0  0  0  0  0  0  0
    8.8235   -3.3020   -0.5967 H   0  0  0  0  0  0  0  0  0  0  0  0
    8.3739   -4.8267    0.1410 H   0  0  0  0  0  0  0  0  0  0  0  0
    8.1454   -2.1910    1.6689 H   0  0  0  0  0  0  0  0  0  0  0  0
    8.5805   -4.9585    2.7854 H   0  0  0  0  0  0  0  0  0  0  0  0
    6.9697   -4.2457    2.5555 H   0  0  0  0  0  0  0  0  0  0  0  0
    8.1393   -3.4673    3.6117 H   0  0  0  0  0  0  0  0  0  0  0  0
   10.5822   -3.9439    1.2497 H   0  0  0  0  0  0  0  0  0  0  0  0
   10.4424   -2.6444    2.4679 H   0  0  0  0  0  0  0  0  0  0  0  0
   10.3390   -2.2697    0.7431 H   0  0  0  0  0  0  0  0  0  0  0  0
    4.2770   -2.9795    0.1475 H   0  0  0  0  0  0  0  0  0  0  0  0
    4.4929   -1.5264   -0.8604 H   0  0  0  0  0  0  0  0  0  0  0  0
    4.4481   -1.3844    0.9173 H   0  0  0  0  0  0  0  0  0  0  0  0
    7.0072    1.0608    0.0224 H   0  0  0  0  0  0  0  0  0  0  0  0
    8.2501    0.3535    0.9962 H   0  0  0  0  0  0  0  0  0  0  0  0
    5.7304    2.6425    0.8550 H   0  0  0  0  0  0  0  0  0  0  0  0
    4.8691    2.4399    2.3572 H   0  0  0  0  0  0  0  0  0  0  0  0
    4.7522    1.1976    1.0867 H   0  0  0  0  0  0  0  0  0  0  0  0
  1  2  1  0  0  0  0
  1 85  1  0  0  0  0
  1 86  1  0  0  0  0
  1 87  1  0  0  0  0
  2  3  1  0  0  0  0
  2 88  1  0  0  0  0
  2 89  1  0  0  0  0
  3  4  1  0  0  0  0
  3 83  1  0  0  0  0
  3 90  1  1  0  0  0
  4  5  1  0  0  0  0
  4 91  1  0  0  0  0
  5  6  2  0  0  0  0
  5  7  1  0  0  0  0
  7  8  1  0  0  0  0
  7 15  1  0  0  0  0
  7 92  1  1  0  0  0
  8  9  1  0  0  0  0
  8 13  1  0  0  0  0
  8 93  1  0  0  0  0
  9 10  1  0  0  0  0
  9 94  1  0  0  0  0
  9 95  1  0  0  0  0
 10 11  1  0  0  0  0
 10 96  1  0  0  0  0
 10 97  1  0  0  0  0
 11 12  1  0  0  0  0
 11 98  1  0  0  0  0
 11 99  1  0  0  0  0
 12 13  1  0  0  0  0
 12100  1  0  0  0  0
 12101  1  0  0  0  0
 13 14  1  0  0  0  0
 13102  1  0  0  0  0
 14103  1  0  0  0  0
 14104  1  0  0  0  0
 14105  1  0  0  0  0
 15 16  1  0  0  0  0
 15 17  1  0  0  0  0
 16106  1  0  0  0  0
 16107  1  0  0  0  0
 16108  1  0  0  0  0
 17 18  2  0  0  0  0
 17 19  1  0  0  0  0
 19 23  1  0  0  0  0
 19 20  1  0  0  0  0
 19109  1  6  0  0  0
 20 21  1  0  0  0  0
 20 22  1  0  0  0  0
 20110  1  0  0  0  0
 21111  1  0  0  0  0
 21112  1  0  0  0  0
 21113  1  0  0  0  0
 22114  1  0  0  0  0
 22115  1  0  0  0  0
 22116  1  0  0  0  0
 23 24  1  0  0  0  0
 23 25  1  0  0  0  0
 24117  1  0  0  0  0
 24118  1  0  0  0  0
 24119  1  0  0  0  0
 25 26  2  0  0  0  0
 25 27  1  0  0  0  0
 27 32  1  0  0  0  0
 27 28  1  0  0  0  0
 27120  1  1  0  0  0
 28 29  1  0  0  0  0
 28121  1  0  0  0  0
 28122  1  0  0  0  0
 29 30  1  0  0  0  0
 29 31  1  0  0  0  0
 29123  1  0  0  0  0
 30124  1  0  0  0  0
 30125  1  0  0  0  0
 30126  1  0  0  0  0
 31127  1  0  0  0  0
 31128  1  0  0  0  0
 31129  1  0  0  0  0
 32 33  1  0  0  0  0
 32 34  1  0  0  0  0
 33130  1  0  0  0  0
 33131  1  0  0  0  0
 33132  1  0  0  0  0
 34 35  2  0  0  0  0
 34 36  1  0  0  0  0
 36 41  1  0  0  0  0
 36 37  1  0  0  0  0
 36133  1  6  0  0  0
 37 38  1  0  0  0  0
 37134  1  0  0  0  0
 37135  1  0  0  0  0
 38 39  1  0  0  0  0
 38 40  1  0  0  0  0
 38136  1  0  0  0  0
 39137  1  0  0  0  0
 39138  1  0  0  0  0
 39139  1  0  0  0  0
 40140  1  0  0  0  0
 40141  1  0  0  0  0
 40142  1  0  0  0  0
 41 42  1  0  0  0  0
 41 43  1  0  0  0  0
 42143  1  0  0  0  0
 42144  1  0  0  0  0
 42145  1  0  0  0  0
 43 44  2  0  0  0  0
 43 45  1  0  0  0  0
 45 46  1  0  0  0  0
 45 47  1  0  0  0  0
 45146  1  6  0  0  0
 46147  1  0  0  0  0
 46148  1  0  0  0  0
 46149  1  0  0  0  0
 47 48  1  0  0  0  0
 47150  1  0  0  0  0
 48 49  2  0  0  0  0
 48 50  1  0  0  0  0
 50 51  1  0  0  0  0
 50 52  1  0  0  0  0
 50151  1  6  0  0  0
 51152  1  0  0  0  0
 51153  1  0  0  0  0
 51154  1  0  0  0  0
 52 53  1  0  0  0  0
 52155  1  0  0  0  0
 53 54  2  0  0  0  0
 53 55  1  0  0  0  0
 55 56  1  0  0  0  0
 55 60  1  0  0  0  0
 55156  1  6  0  0  0
 56 57  1  0  0  0  0
 56157  1  0  0  0  0
 56158  1  0  0  0  0
 57 58  1  0  0  0  0
 57 59  1  0  0  0  0
 57159  1  0  0  0  0
 58160  1  0  0  0  0
 58161  1  0  0  0  0
 58162  1  0  0  0  0
 59163  1  0  0  0  0
 59164  1  0  0  0  0
 59165  1  0  0  0  0
 60 61  1  0  0  0  0
 60 62  1  0  0  0  0
 61166  1  0  0  0  0
 61167  1  0  0  0  0
 61168  1  0  0  0  0
 62 63  2  0  0  0  0
 62 64  1  0  0  0  0
 64 65  1  0  0  0  0
 64 68  1  0  0  0  0
 64169  1  1  0  0  0
 65 66  1  0  0  0  0
 65 67  1  0  0  0  0
 65170  1  0  0  0  0
 66171  1  0  0  0  0
 66172  1  0  0  0  0
 66173  1  0  0  0  0
 67174  1  0  0  0  0
 67175  1  0  0  0  0
 67176  1  0  0  0  0
 68 69  1  0  0  0  0
 68177  1  0  0  0  0
 69 70  2  0  0  0  0
 69 71  1  0  0  0  0
 71 72  1  0  0  0  0
 71 76  1  0  0  0  0
 71178  1  1  0  0  0
 72 73  1  0  0  0  0
 72179  1  0  0  0  0
 72180  1  0  0  0  0
 73 74  1  0  0  0  0
 73 75  1  0  0  0  0
 73181  1  0  0  0  0
 74182  1  0  0  0  0
 74183  1  0  0  0  0
 74184  1  0  0  0  0
 75185  1  0  0  0  0
 75186  1  0  0  0  0
 75187  1  0  0  0  0
 76 77  1  0  0  0  0
 76 78  1  0  0  0  0
 77188  1  0  0  0  0
 77189  1  0  0  0  0
 77190  1  0  0  0  0
 78 79  2  0  0  0  0
 78 80  1  0  0  0  0
 80 81  1  0  0  0  0
 80191  1  0  0  0  0
 80192  1  0  0  0  0
 81 82  1  0  0  0  0
 81 83  1  0  0  0  0
 82193  1  0  0  0  0
 82194  1  0  0  0  0
 82195  1  0  0  0  0
 83 84  2  0  0  0  0
M  END
>  <Energy>
758.335

$$$$