70
 OpenBabel03292021513D

188188  0  0  1  0  0  0  0  0999 V2000
    1.7064    2.8761    2.8657 C   0  0  0  0  0  0  0  0  0  0  0  0
    3.0198    2.1768    2.9792 C   0  0  0  0  0  0  0  0  0  0  0  0
    3.1428    0.9158    3.4247 C   0  0  0  0  0  0  0  0  0  0  0  0
    4.4385    0.1502    3.3971 C   0  0  0  0  0  0  0  0  0  0  0  0
    4.4469   -0.9716    2.3219 C   0  0  1  0  0  0  0  0  0  0  0  0
    4.0407   -0.4195    0.9415 C   0  0  0  0  0  0  0  0  0  0  0  0
    5.8376   -1.6303    2.1513 C   0  0  1  0  0  0  0  0  0  0  0  0
    6.7261   -0.5435    1.7898 O   0  0  0  0  0  0  0  0  0  0  0  0
    6.4122   -2.4330    3.3635 C   0  0  1  0  0  0  0  0  0  0  0  0
    5.2081   -3.6829    3.7799 C   0  0  0  0  0  0  0  0  0  0  0  0
    4.1996   -3.3067    4.4094 O   0  0  0  0  0  0  0  0  0  0  0  0
    5.0710   -5.0174    3.2448 N   0  0  0  0  0  0  0  0  0  0  0  0
    5.2273   -6.2869    4.2040 C   0  0  1  0  0  0  0  0  0  0  0  0
    5.7984   -7.7910    3.8510 C   0  0  1  0  0  0  0  0  0  0  0  0
    7.3294   -8.1879    3.8542 C   0  0  0  0  0  0  0  0  0  0  0  0
    5.2114   -8.7001    4.8293 O   0  0  0  0  0  0  0  0  0  0  0  0
    6.2454   -5.7780    5.1303 C   0  0  0  0  0  0  0  0  0  0  0  0
    6.0176   -5.8153    6.3142 O   0  0  0  0  0  0  0  0  0  0  0  0
    7.3666   -5.2800    4.4606 N   0  0  0  0  0  0  0  0  0  0  0  0
    7.6069   -5.3997    2.9790 C   0  0  0  0  0  0  0  0  0  0  0  0
    8.3471   -4.6504    5.2919 C   0  0  0  0  0  0  0  0  0  0  0  0
    7.7832   -3.8291    6.4566 C   0  0  0  0  0  0  0  0  0  0  0  0
    7.1168   -2.8127    6.2932 O   0  0  0  0  0  0  0  0  0  0  0  0
    8.1288   -4.3041    7.7090 N   0  0  0  0  0  0  0  0  0  0  0  0
    8.0477   -5.7641    7.9261 C   0  0  0  0  0  0  0  0  0  0  0  0
    8.0036   -3.3362    8.8212 C   0  0  2  0  0  0  0  0  0  0  0  0
    9.2713   -3.3326    9.6947 C   0  0  0  0  0  0  0  0  0  0  0  0
    9.9217   -4.6730   10.0859 C   0  0  0  0  0  0  0  0  0  0  0  0
   11.2604   -4.5071   10.7989 C   0  0  0  0  0  0  0  0  0  0  0  0
    9.0004   -5.5496   10.9365 C   0  0  0  0  0  0  0  0  0  0  0  0
    6.6814   -3.3285    9.6612 C   0  0  0  0  0  0  0  0  0  0  0  0
    6.1213   -4.3725    9.9712 O   0  0  0  0  0  0  0  0  0  0  0  0
    6.1370   -2.2002   10.2187 N   0  0  0  0  0  0  0  0  0  0  0  0
    5.9523   -0.8367    9.6643 C   0  0  1  0  0  0  0  0  0  0  0  0
    4.6259   -0.2294   10.1427 C   0  0  0  0  0  0  0  0  0  0  0  0
    3.2632   -0.8119    9.7335 C   0  0  0  0  0  0  0  0  0  0  0  0
    2.1725    0.0056   10.4568 C   0  0  0  0  0  0  0  0  0  0  0  0
    3.0175   -0.7574    8.2311 C   0  0  0  0  0  0  0  0  0  0  0  0
    7.2019    0.0878    9.9635 C   0  0  0  0  0  0  0  0  0  0  0  0
    8.1789   -0.0534    9.2102 O   0  0  0  0  0  0  0  0  0  0  0  0
    7.3413    0.8821   11.1151 N   0  0  0  0  0  0  0  0  0  0  0  0
    6.3102    1.7055   11.7583 C   0  0  0  0  0  0  0  0  0  0  0  0
    8.7375    1.2544   11.5045 C   0  0  2  0  0  0  0  0  0  0  0  0
    9.0421    0.8970   12.9810 C   0  0  0  0  0  0  0  0  0  0  0  0
    8.9286   -0.6029   13.2985 C   0  0  0  0  0  0  0  0  0  0  0  0
    9.9595   -1.4258   12.5354 C   0  0  0  0  0  0  0  0  0  0  0  0
    9.1300   -0.8484   14.7928 C   0  0  0  0  0  0  0  0  0  0  0  0
    9.0897    2.7544   11.3081 C   0  0  0  0  0  0  0  0  0  0  0  0
    8.4877    3.6567   11.8994 O   0  0  0  0  0  0  0  0  0  0  0  0
   10.1023    3.1352   10.4806 N   0  0  0  0  0  0  0  0  0  0  0  0
   10.9377    2.3202    9.5985 C   0  0  1  0  0  0  0  0  0  0  0  0
   11.1795    3.1065    8.3339 C   0  0  0  0  0  0  0  0  0  0  0  0
   12.1100    1.6677   10.3932 C   0  0  0  0  0  0  0  0  0  0  0  0
   11.8637    1.1213   11.4802 O   0  0  0  0  0  0  0  0  0  0  0  0
   13.3955    1.5043    9.9886 N   0  0  0  0  0  0  0  0  0  0  0  0
   14.3239    2.3917    9.2689 C   0  0  2  0  0  0  0  0  0  0  0  0
   14.2188    3.8360    9.7464 C   0  0  0  0  0  0  0  0  0  0  0  0
   14.3135    2.2007    7.7290 C   0  0  0  0  0  0  0  0  0  0  0  0
   13.9187    3.0947    6.9708 O   0  0  0  0  0  0  0  0  0  0  0  0
   14.6792    0.9357    7.2519 N   0  0  0  0  0  0  0  0  0  0  0  0
   16.0074    0.4257    7.5648 C   0  0  0  0  0  0  0  0  0  0  0  0
   14.0973    0.5007    5.9501 C   0  0  1  0  0  0  0  0  0  0  0  0
   12.5835    0.4039    6.0714 C   0  0  0  0  0  0  0  0  0  0  0  0
   12.0088   -0.5126    7.1582 C   0  0  0  0  0  0  0  0  0  0  0  0
   10.4930   -0.3577    7.0868 C   0  0  0  0  0  0  0  0  0  0  0  0
   12.4041   -1.9720    6.9328 C   0  0  0  0  0  0  0  0  0  0  0  0
   14.6500    1.3010    4.7288 C   0  0  0  0  0  0  0  0  0  0  0  0
   15.8579    1.5841    4.6809 O   0  0  0  0  0  0  0  0  0  0  0  0
   13.9376    1.6357    3.6156 N   0  0  0  0  0  0  0  0  0  0  0  0
   12.4959    1.5617    3.1848 C   0  0  1  0  0  0  0  0  0  0  0  0
   12.3288    2.6938    2.1789 C   0  0  0  0  0  0  0  0  0  0  0  0
   12.1612    0.0397    2.7945 C   0  0  0  0  0  0  0  0  0  0  0  0
   12.9912   -0.7723    3.2246 O   0  0  0  0  0  0  0  0  0  0  0  0
   10.9397   -0.4188    2.2374 N   0  0  0  0  0  0  0  0  0  0  0  0
   10.3058    0.3773    1.1985 C   0  0  0  0  0  0  0  0  0  0  0  0
   10.5568   -1.9349    2.1180 C   0  0  1  0  0  0  0  0  0  0  0  0
   11.4543   -2.9463    2.9293 C   0  0  0  0  0  0  0  0  0  0  0  0
   10.8946   -4.3558    3.0080 C   0  0  0  0  0  0  0  0  0  0  0  0
   12.8809   -3.1921    2.3791 C   0  0  0  0  0  0  0  0  0  0  0  0
    8.9006   -2.3475    2.1456 C   0  0  0  0  0  0  0  0  0  0  0  0
    8.4380   -2.8974    1.1376 O   0  0  0  0  0  0  0  0  0  0  0  0
    8.0697   -2.1810    3.2961 N   0  0  0  0  0  0  0  0  0  0  0  0
    8.6637   -1.4188    4.3869 C   0  0  0  0  0  0  0  0  0  0  0  0
    1.8618    3.9541    2.7590 H   0  0  0  0  0  0  0  0  0  0  0  0
    1.0818    2.7086    3.7476 H   0  0  0  0  0  0  0  0  0  0  0  0
    1.1750    2.5246    1.9751 H   0  0  0  0  0  0  0  0  0  0  0  0
    3.8929    2.7129    2.6133 H   0  0  0  0  0  0  0  0  0  0  0  0
    2.2642    0.3703    3.7619 H   0  0  0  0  0  0  0  0  0  0  0  0
    4.5966   -0.2772    4.3944 H   0  0  0  0  0  0  0  0  0  0  0  0
    5.2701    0.8468    3.2319 H   0  0  0  0  0  0  0  0  0  0  0  0
    3.7043   -1.7284    2.5942 H   0  0  0  0  0  0  0  0  0  0  0  0
    4.6799    0.4195    0.6444 H   0  0  0  0  0  0  0  0  0  0  0  0
    3.0026   -0.0781    0.9312 H   0  0  0  0  0  0  0  0  0  0  0  0
    4.1313   -1.1986    0.1769 H   0  0  0  0  0  0  0  0  0  0  0  0
    5.8138   -2.3174    1.2991 H   0  0  0  0  0  0  0  0  0  0  0  0
    7.2738   -0.3757    2.5748 H   0  0  0  0  0  0  0  0  0  0  0  0
    6.2174   -1.7971    4.2373 H   0  0  0  0  0  0  0  0  0  0  0  0
    4.0643   -5.0600    3.1112 H   0  0  0  0  0  0  0  0  0  0  0  0
    4.2779   -6.3957    4.7389 H   0  0  0  0  0  0  0  0  0  0  0  0
    5.3744   -8.1070    2.8966 H   0  0  0  0  0  0  0  0  0  0  0  0
    7.5976   -8.9670    4.5797 H   0  0  0  0  0  0  0  0  0  0  0  0
    8.0573   -7.4122    4.0725 H   0  0  0  0  0  0  0  0  0  0  0  0
    7.6085   -8.5755    2.8666 H   0  0  0  0  0  0  0  0  0  0  0  0
    5.7924   -9.4707    4.9649 H   0  0  0  0  0  0  0  0  0  0  0  0
    6.9896   -6.1545    2.4884 H   0  0  0  0  0  0  0  0  0  0  0  0
    8.6268   -5.6936    2.7627 H   0  0  0  0  0  0  0  0  0  0  0  0
    7.3495   -4.4828    2.4724 H   0  0  0  0  0  0  0  0  0  0  0  0
    8.8492   -3.9277    4.6851 H   0  0  0  0  0  0  0  0  0  0  0  0
    9.1232   -5.3652    5.5698 H   0  0  0  0  0  0  0  0  0  0  0  0
    8.0593   -6.3349    6.9973 H   0  0  0  0  0  0  0  0  0  0  0  0
    7.1309   -6.0117    8.4569 H   0  0  0  0  0  0  0  0  0  0  0  0
    8.9040   -6.1766    8.4336 H   0  0  0  0  0  0  0  0  0  0  0  0
    7.9968   -2.3415    8.3495 H   0  0  0  0  0  0  0  0  0  0  0  0
   10.0350   -2.7659    9.1498 H   0  0  0  0  0  0  0  0  0  0  0  0
    9.0351   -2.7802   10.5962 H   0  0  0  0  0  0  0  0  0  0  0  0
   10.2231   -5.1778    9.1656 H   0  0  0  0  0  0  0  0  0  0  0  0
   11.1340   -4.1579   11.8248 H   0  0  0  0  0  0  0  0  0  0  0  0
   11.9114   -3.8138   10.2580 H   0  0  0  0  0  0  0  0  0  0  0  0
   11.7733   -5.4765   10.8337 H   0  0  0  0  0  0  0  0  0  0  0  0
    8.7825   -5.0710   11.8972 H   0  0  0  0  0  0  0  0  0  0  0  0
    9.4585   -6.5239   11.1264 H   0  0  0  0  0  0  0  0  0  0  0  0
    8.0410   -5.7516   10.4658 H   0  0  0  0  0  0  0  0  0  0  0  0
    5.3328   -2.5190   10.7584 H   0  0  0  0  0  0  0  0  0  0  0  0
    5.9113   -0.9359    8.5718 H   0  0  0  0  0  0  0  0  0  0  0  0
    4.6141    0.8220    9.8284 H   0  0  0  0  0  0  0  0  0  0  0  0
    4.6309   -0.2990   11.2375 H   0  0  0  0  0  0  0  0  0  0  0  0
    3.1889   -1.8512   10.0720 H   0  0  0  0  0  0  0  0  0  0  0  0
    2.2170    1.0649   10.1735 H   0  0  0  0  0  0  0  0  0  0  0  0
    2.2987   -0.0466   11.5447 H   0  0  0  0  0  0  0  0  0  0  0  0
    1.1698   -0.3627   10.2197 H   0  0  0  0  0  0  0  0  0  0  0  0
    3.1078    0.2656    7.8498 H   0  0  0  0  0  0  0  0  0  0  0  0
    2.0065   -1.1105    7.9973 H   0  0  0  0  0  0  0  0  0  0  0  0
    3.7252   -1.3922    7.6922 H   0  0  0  0  0  0  0  0  0  0  0  0
    5.2857    1.4346   11.5765 H   0  0  0  0  0  0  0  0  0  0  0  0
    6.3927    2.7297   11.3869 H   0  0  0  0  0  0  0  0  0  0  0  0
    6.4435    1.6883   12.8414 H   0  0  0  0  0  0  0  0  0  0  0  0
    9.4212    0.6708   10.8982 H   0  0  0  0  0  0  0  0  0  0  0  0
   10.0520    1.2419   13.2350 H   0  0  0  0  0  0  0  0  0  0  0  0
    8.3789    1.4583   13.6493 H   0  0  0  0  0  0  0  0  0  0  0  0
    7.9238   -0.9514   13.0281 H   0  0  0  0  0  0  0  0  0  0  0  0
   10.9800   -1.2167   12.8671 H   0  0  0  0  0  0  0  0  0  0  0  0
    9.9274   -1.2228   11.4651 H   0  0  0  0  0  0  0  0  0  0  0  0
    9.7656   -2.4919   12.6877 H   0  0  0  0  0  0  0  0  0  0  0  0
   10.1375   -0.5516   15.1050 H   0  0  0  0  0  0  0  0  0  0  0  0
    9.0049   -1.9111   15.0270 H   0  0  0  0  0  0  0  0  0  0  0  0
    8.4067   -0.2827   15.3868 H   0  0  0  0  0  0  0  0  0  0  0  0
   10.2582    4.1353   10.4895 H   0  0  0  0  0  0  0  0  0  0  0  0
   10.3320    1.4644    9.2974 H   0  0  0  0  0  0  0  0  0  0  0  0
   11.6050    4.0959    8.5083 H   0  0  0  0  0  0  0  0  0  0  0  0
   10.2392    3.2612    7.7902 H   0  0  0  0  0  0  0  0  0  0  0  0
   11.8224    2.5530    7.6743 H   0  0  0  0  0  0  0  0  0  0  0  0
   13.8609    0.9322   10.6839 H   0  0  0  0  0  0  0  0  0  0  0  0
   15.3166    2.0683    9.5994 H   0  0  0  0  0  0  0  0  0  0  0  0
   13.1884    4.1712    9.8712 H   0  0  0  0  0  0  0  0  0  0  0  0
   14.7228    4.5264    9.0650 H   0  0  0  0  0  0  0  0  0  0  0  0
   14.6847    3.9344   10.7345 H   0  0  0  0  0  0  0  0  0  0  0  0
   16.2541    0.5635    8.6191 H   0  0  0  0  0  0  0  0  0  0  0  0
   16.7497    0.9705    6.9748 H   0  0  0  0  0  0  0  0  0  0  0  0
   16.0620   -0.6428    7.3379 H   0  0  0  0  0  0  0  0  0  0  0  0
   14.4640   -0.5205    5.7769 H   0  0  0  0  0  0  0  0  0  0  0  0
   12.1739    0.0055    5.1563 H   0  0  0  0  0  0  0  0  0  0  0  0
   12.1593    1.4042    6.1515 H   0  0  0  0  0  0  0  0  0  0  0  0
   12.3448   -0.2121    8.1524 H   0  0  0  0  0  0  0  0  0  0  0  0
   10.1588   -0.4319    6.0570 H   0  0  0  0  0  0  0  0  0  0  0  0
   10.1765    0.6323    7.4131 H   0  0  0  0  0  0  0  0  0  0  0  0
    9.9709   -1.1080    7.6763 H   0  0  0  0  0  0  0  0  0  0  0  0
   12.2527   -2.2682    5.8931 H   0  0  0  0  0  0  0  0  0  0  0  0
   11.8128   -2.6479    7.5569 H   0  0  0  0  0  0  0  0  0  0  0  0
   13.4590   -2.1348    7.1724 H   0  0  0  0  0  0  0  0  0  0  0  0
   14.5753    2.0274    2.9326 H   0  0  0  0  0  0  0  0  0  0  0  0
   11.8869    1.8166    4.0540 H   0  0  0  0  0  0  0  0  0  0  0  0
   12.7097    2.4215    1.1907 H   0  0  0  0  0  0  0  0  0  0  0  0
   12.8799    3.5876    2.5067 H   0  0  0  0  0  0  0  0  0  0  0  0
   11.2892    3.0202    2.1005 H   0  0  0  0  0  0  0  0  0  0  0  0
   10.5279    1.4306    1.2654 H   0  0  0  0  0  0  0  0  0  0  0  0
    9.2239    0.2578    1.2445 H   0  0  0  0  0  0  0  0  0  0  0  0
   10.6766    0.0291    0.2280 H   0  0  0  0  0  0  0  0  0  0  0  0
   10.8141   -2.1446    1.0674 H   0  0  0  0  0  0  0  0  0  0  0  0
   11.5075   -2.5596    3.9504 H   0  0  0  0  0  0  0  0  0  0  0  0
   11.0342   -4.9262    2.0846 H   0  0  0  0  0  0  0  0  0  0  0  0
    9.8429   -4.3088    3.1741 H   0  0  0  0  0  0  0  0  0  0  0  0
   11.3424   -4.9137    3.8374 H   0  0  0  0  0  0  0  0  0  0  0  0
   12.9172   -4.0239    1.6683 H   0  0  0  0  0  0  0  0  0  0  0  0
   13.5402   -3.4624    3.2156 H   0  0  0  0  0  0  0  0  0  0  0  0
   13.3225   -2.3543    1.8408 H   0  0  0  0  0  0  0  0  0  0  0  0
    9.2423   -0.5828    3.9982 H   0  0  0  0  0  0  0  0  0  0  0  0
    9.3554   -2.0557    4.9422 H   0  0  0  0  0  0  0  0  0  0  0  0
    7.9178   -0.9961    5.0593 H   0  0  0  0  0  0  0  0  0  0  0  0
  1  2  1  0  0  0  0
  1 84  1  0  0  0  0
  1 85  1  0  0  0  0
  1 86  1  0  0  0  0
  2  3  2  0  0  0  0
  2 87  1  0  0  0  0
  3  4  1  0  0  0  0
  3 88  1  0  0  0  0
  4  5  1  0  0  0  0
  4 89  1  0  0  0  0
  4 90  1  0  0  0  0
  5  6  1  0  0  0  0
  5  7  1  0  0  0  0
  5 91  1  1  0  0  0
  6 92  1  0  0  0  0
  6 93  1  0  0  0  0
  6 94  1  0  0  0  0
  7  8  1  0  0  0  0
  7  9  1  0  0  0  0
  7 95  1  6  0  0  0
  8 96  1  0  0  0  0
  9 10  1  0  0  0  0
  9 82  1  0  0  0  0
  9 97  1  1  0  0  0
 10 11  2  0  0  0  0
 10 12  1  0  0  0  0
 12 13  1  0  0  0  0
 12 98  1  0  0  0  0
 13 14  1  0  0  0  0
 13 17  1  0  0  0  0
 13 99  1  1  0  0  0
 14 15  1  0  0  0  0
 14 16  1  0  0  0  0
 14100  1  6  0  0  0
 15101  1  0  0  0  0
 15102  1  0  0  0  0
 15103  1  0  0  0  0
 16104  1  0  0  0  0
 17 18  2  0  0  0  0
 17 19  1  0  0  0  0
 19 20  1  0  0  0  0
 19 21  1  0  0  0  0
 20105  1  0  0  0  0
 20106  1  0  0  0  0
 20107  1  0  0  0  0
 21 22  1  0  0  0  0
 21108  1  0  0  0  0
 21109  1  0  0  0  0
 22 23  2  0  0  0  0
 22 24  1  0  0  0  0
 24 25  1  0  0  0  0
 24 26  1  0  0  0  0
 25110  1  0  0  0  0
 25111  1  0  0  0  0
 25112  1  0  0  0  0
 26 31  1  0  0  0  0
 26 27  1  0  0  0  0
 26113  1  6  0  0  0
 27 28  1  0  0  0  0
 27114  1  0  0  0  0
 27115  1  0  0  0  0
 28 29  1  0  0  0  0
 28 30  1  0  0  0  0
 28116  1  0  0  0  0
 29117  1  0  0  0  0
 29118  1  0  0  0  0
 29119  1  0  0  0  0
 30120  1  0  0  0  0
 30121  1  0  0  0  0
 30122  1  0  0  0  0
 31 32  2  0  0  0  0
 31 33  1  0  0  0  0
 33 34  1  0  0  0  0
 33123  1  0  0  0  0
 34 35  1  0  0  0  0
 34 39  1  0  0  0  0
 34124  1  6  0  0  0
 35 36  1  0  0  0  0
 35125  1  0  0  0  0
 35126  1  0  0  0  0
 36 37  1  0  0  0  0
 36 38  1  0  0  0  0
 36127  1  0  0  0  0
 37128  1  0  0  0  0
 37129  1  0  0  0  0
 37130  1  0  0  0  0
 38131  1  0  0  0  0
 38132  1  0  0  0  0
 38133  1  0  0  0  0
 39 40  2  0  0  0  0
 39 41  1  0  0  0  0
 41 42  1  0  0  0  0
 41 43  1  0  0  0  0
 42134  1  0  0  0  0
 42135  1  0  0  0  0
 42136  1  0  0  0  0
 43 48  1  0  0  0  0
 43 44  1  0  0  0  0
 43137  1  6  0  0  0
 44 45  1  0  0  0  0
 44138  1  0  0  0  0
 44139  1  0  0  0  0
 45 46  1  0  0  0  0
 45 47  1  0  0  0  0
 45140  1  0  0  0  0
 46141  1  0  0  0  0
 46142  1  0  0  0  0
 46143  1  0  0  0  0
 47144  1  0  0  0  0
 47145  1  0  0  0  0
 47146  1  0  0  0  0
 48 49  2  0  0  0  0
 48 50  1  0  0  0  0
 50 51  1  0  0  0  0
 50147  1  0  0  0  0
 51 52  1  0  0  0  0
 51 53  1  0  0  0  0
 51148  1  6  0  0  0
 52149  1  0  0  0  0
 52150  1  0  0  0  0
 52151  1  0  0  0  0
 53 54  2  0  0  0  0
 53 55  1  0  0  0  0
 55 56  1  0  0  0  0
 55152  1  0  0  0  0
 56 58  1  0  0  0  0
 56 57  1  0  0  0  0
 56153  1  1  0  0  0
 57154  1  0  0  0  0
 57155  1  0  0  0  0
 57156  1  0  0  0  0
 58 59  2  0  0  0  0
 58 60  1  0  0  0  0
 60 61  1  0  0  0  0
 60 62  1  0  0  0  0
 61157  1  0  0  0  0
 61158  1  0  0  0  0
 61159  1  0  0  0  0
 62 63  1  0  0  0  0
 62 67  1  0  0  0  0
 62160  1  6  0  0  0
 63 64  1  0  0  0  0
 63161  1  0  0  0  0
 63162  1  0  0  0  0
 64 65  1  0  0  0  0
 64 66  1  0  0  0  0
 64163  1  0  0  0  0
 65164  1  0  0  0  0
 65165  1  0  0  0  0
 65166  1  0  0  0  0
 66167  1  0  0  0  0
 66168  1  0  0  0  0
 66169  1  0  0  0  0
 67 68  2  0  0  0  0
 67 69  1  0  0  0  0
 69 70  1  0  0  0  0
 69170  1  0  0  0  0
 70 71  1  0  0  0  0
 70 72  1  0  0  0  0
 70171  1  1  0  0  0
 71172  1  0  0  0  0
 71173  1  0  0  0  0
 71174  1  0  0  0  0
 72 73  2  0  0  0  0
 72 74  1  0  0  0  0
 74 75  1  0  0  0  0
 74 76  1  0  0  0  0
 75175  1  0  0  0  0
 75176  1  0  0  0  0
 75177  1  0  0  0  0
 76 77  1  0  0  0  0
 76 80  1  0  0  0  0
 76178  1  6  0  0  0
 77 78  1  0  0  0  0
 77 79  1  0  0  0  0
 77179  1  0  0  0  0
 78180  1  0  0  0  0
 78181  1  0  0  0  0
 78182  1  0  0  0  0
 79183  1  0  0  0  0
 79184  1  0  0  0  0
 79185  1  0  0  0  0
 80 81  2  0  0  0  0
 80 82  1  0  0  0  0
 82 83  1  0  0  0  0
 83186  1  0  0  0  0
 83187  1  0  0  0  0
 83188  1  0  0  0  0
M  END
>  <Energy>
600.874

$$$$