72
 OpenBabel03292021523D

171174  0  0  1  0  0  0  0  0999 V2000
    5.7040   -2.5469    1.7556 C   0  0  0  0  0  0  0  0  0  0  0  0
    6.3410   -3.8155    2.3631 C   0  0  0  0  0  0  0  0  0  0  0  0
    6.7869   -3.9566    3.8915 C   0  0  2  0  0  0  0  0  0  0  0  0
    7.1802   -2.5114    4.2671 C   0  0  0  0  0  0  0  0  0  0  0  0
    5.7792   -4.6798    5.0807 C   0  0  2  0  0  0  0  0  0  0  0  0
    5.9791   -6.3080    5.5831 N   0  0  0  0  0  0  0  0  0  0  0  0
    5.8172   -6.8945    6.8837 C   0  0  0  0  0  0  0  0  0  0  0  0
    5.4288   -6.0482    7.7087 O   0  0  0  0  0  0  0  0  0  0  0  0
    5.9963   -8.6035    7.6118 C   0  0  2  0  0  0  0  0  0  0  0  0
    7.2522   -9.5272    7.8179 C   0  0  0  0  0  0  0  0  0  0  0  0
    6.8923  -10.9457    7.3404 C   0  0  0  0  0  0  0  0  0  0  0  0
    5.4073  -10.8915    7.0326 C   0  0  0  0  0  0  0  0  0  0  0  0
    4.9597   -9.7755    7.8397 N   0  0  0  0  0  0  0  0  0  0  0  0
    4.2919  -10.2921    8.9825 C   0  0  0  0  0  0  0  0  0  0  0  0
    3.5140  -11.2553    8.8061 O   0  0  0  0  0  0  0  0  0  0  0  0
    4.3687   -9.8120   10.4669 C   0  0  1  0  0  0  0  0  0  0  0  0
    5.7231   -9.9765   11.2081 C   0  0  0  0  0  0  0  0  0  0  0  0
    6.2759  -11.3346   11.6009 C   0  0  0  0  0  0  0  0  0  0  0  0
    7.6527  -11.5765   11.4240 C   0  0  0  0  0  0  0  0  0  0  0  0
    8.2570  -12.7343   11.9175 C   0  0  0  0  0  0  0  0  0  0  0  0
    7.4954  -13.6675   12.6123 C   0  0  0  0  0  0  0  0  0  0  0  0
    6.1337  -13.4400   12.8071 C   0  0  0  0  0  0  0  0  0  0  0  0
    5.5256  -12.2792   12.3090 C   0  0  0  0  0  0  0  0  0  0  0  0
    3.6888   -8.4989   10.6262 N   0  0  0  0  0  0  0  0  0  0  0  0
    2.2790   -8.5236   10.9862 C   0  0  0  0  0  0  0  0  0  0  0  0
    4.4422   -7.3709   10.4662 C   0  0  0  0  0  0  0  0  0  0  0  0
    5.6560   -7.4765   10.5936 O   0  0  0  0  0  0  0  0  0  0  0  0
    3.8651   -5.9842   10.2049 C   0  0  2  0  0  0  0  0  0  0  0  0
    2.9190   -5.6760    8.9721 C   0  0  0  0  0  0  0  0  0  0  0  0
    2.0086   -6.7254    8.3400 C   0  0  0  0  0  0  0  0  0  0  0  0
    0.6403   -6.5293    8.0782 C   0  0  0  0  0  0  0  0  0  0  0  0
   -0.1103   -7.5010    7.3775 C   0  0  0  0  0  0  0  0  0  0  0  0
    0.4616   -8.7004    6.9640 C   0  0  0  0  0  0  0  0  0  0  0  0
    1.8011   -8.8967    7.1916 C   0  0  0  0  0  0  0  0  0  0  0  0
    2.5529   -7.8931    7.8186 C   0  0  0  0  0  0  0  0  0  0  0  0
    4.9657   -4.9487   10.4417 N   0  0  0  0  0  0  0  0  0  0  0  0
    6.2908   -4.7171   10.1605 C   0  0  0  0  0  0  0  0  0  0  0  0
    6.5624   -3.5084   10.3415 O   0  0  0  0  0  0  0  0  0  0  0  0
    7.5263   -5.7306    9.7991 C   0  0  2  0  0  0  0  0  0  0  0  0
    8.3976   -6.1468   11.0705 C   0  0  0  0  0  0  0  0  0  0  0  0
    9.5430   -7.1219   10.7353 C   0  0  0  0  0  0  0  0  0  0  0  0
    7.6521   -6.7494   12.2649 C   0  0  0  0  0  0  0  0  0  0  0  0
    8.4577   -5.0932    8.7366 N   0  0  0  0  0  0  0  0  0  0  0  0
    9.0240   -3.8107    9.1382 C   0  0  0  0  0  0  0  0  0  0  0  0
    9.0628   -5.8893    7.7380 C   0  0  0  0  0  0  0  0  0  0  0  0
    9.1347   -7.1163    7.8900 O   0  0  0  0  0  0  0  0  0  0  0  0
    9.5953   -5.3282    6.3202 C   0  0  1  0  0  0  0  0  0  0  0  0
   10.5200   -4.0920    6.4666 C   0  0  1  0  0  0  0  0  0  0  0  0
   11.8181   -4.4477    7.2019 C   0  0  0  0  0  0  0  0  0  0  0  0
   10.8149   -3.3518    5.1579 C   0  0  0  0  0  0  0  0  0  0  0  0
   11.4129   -1.9680    5.4280 C   0  0  0  0  0  0  0  0  0  0  0  0
   10.3791   -6.3690    5.5502 O   0  0  0  0  0  0  0  0  0  0  0  0
   10.2491   -6.8983    4.2899 C   0  0  0  0  0  0  0  0  0  0  0  0
   11.2448   -7.0781    3.5836 O   0  0  0  0  0  0  0  0  0  0  0  0
    8.8589   -7.4589    3.8481 C   0  0  2  0  0  0  0  0  0  0  0  0
    8.4405   -8.6940    4.6609 C   0  0  0  0  0  0  0  0  0  0  0  0
    7.1437   -9.3916    4.2171 C   0  0  0  0  0  0  0  0  0  0  0  0
    9.5266   -9.7587    4.8320 C   0  0  0  0  0  0  0  0  0  0  0  0
    8.1014   -8.1107    5.8881 O   0  0  0  0  0  0  0  0  0  0  0  0
    8.3946   -7.6120    2.4324 N   0  0  0  0  0  0  0  0  0  0  0  0
    8.9791   -8.6777    1.6174 C   0  0  0  0  0  0  0  0  0  0  0  0
    7.1191   -7.1165    2.2066 C   0  0  0  0  0  0  0  0  0  0  0  0
    6.5346   -6.5915    3.1547 O   0  0  0  0  0  0  0  0  0  0  0  0
    6.3934   -7.1426    0.8830 C   0  0  2  0  0  0  0  0  0  0  0  0
    6.9130   -6.0886   -0.1252 C   0  0  0  0  0  0  0  0  0  0  0  0
    8.4398   -5.8782   -0.4106 C   0  0  0  0  0  0  0  0  0  0  0  0
    8.5733   -4.8072   -1.5003 C   0  0  0  0  0  0  0  0  0  0  0  0
    9.3882   -5.4336    0.7188 C   0  0  0  0  0  0  0  0  0  0  0  0
    4.8376   -7.1167    1.0260 N   0  0  0  0  0  0  0  0  0  0  0  0
    3.9160   -6.2022    1.5297 C   0  0  0  0  0  0  0  0  0  0  0  0
    3.0891   -5.8057    0.7186 O   0  0  0  0  0  0  0  0  0  0  0  0
    3.7664   -5.8139    3.0884 C   0  0  2  0  0  0  0  0  0  0  0  0
    2.4887   -6.4212    3.7456 C   0  0  0  0  0  0  0  0  0  0  0  0
    1.9106   -5.6315    4.9546 C   0  0  0  0  0  0  0  0  0  0  0  0
    2.8446   -7.8145    4.2483 C   0  0  0  0  0  0  0  0  0  0  0  0
    3.8102   -4.3870    3.4407 N   0  0  0  0  0  0  0  0  0  0  0  0
    2.8525   -3.4879    2.7737 C   0  0  0  0  0  0  0  0  0  0  0  0
    4.4049   -4.0047    4.6619 C   0  0  0  0  0  0  0  0  0  0  0  0
    4.0277   -2.9880    5.2513 O   0  0  0  0  0  0  0  0  0  0  0  0
    5.1348   -2.8154    0.8505 H   0  0  0  0  0  0  0  0  0  0  0  0
    6.4644   -1.8361    1.4125 H   0  0  0  0  0  0  0  0  0  0  0  0
    5.0266   -2.0163    2.4230 H   0  0  0  0  0  0  0  0  0  0  0  0
    7.2503   -3.9072    1.7720 H   0  0  0  0  0  0  0  0  0  0  0  0
    5.7433   -4.6577    2.0590 H   0  0  0  0  0  0  0  0  0  0  0  0
    7.7078   -4.5412    3.8764 H   0  0  0  0  0  0  0  0  0  0  0  0
    6.3128   -1.8452    4.3003 H   0  0  0  0  0  0  0  0  0  0  0  0
    7.8651   -2.0977    3.5149 H   0  0  0  0  0  0  0  0  0  0  0  0
    7.6867   -2.4662    5.2340 H   0  0  0  0  0  0  0  0  0  0  0  0
    6.0712   -4.1755    6.0115 H   0  0  0  0  0  0  0  0  0  0  0  0
    6.3900   -6.8744    4.8589 H   0  0  0  0  0  0  0  0  0  0  0  0
    5.9545   -8.1897    8.6082 H   0  0  0  0  0  0  0  0  0  0  0  0
    7.4082   -9.6213    8.8970 H   0  0  0  0  0  0  0  0  0  0  0  0
    8.2573   -9.2727    7.5293 H   0  0  0  0  0  0  0  0  0  0  0  0
    7.1017  -11.6612    8.1463 H   0  0  0  0  0  0  0  0  0  0  0  0
    7.4635  -11.2999    6.4829 H   0  0  0  0  0  0  0  0  0  0  0  0
    4.9652  -11.8694    7.2814 H   0  0  0  0  0  0  0  0  0  0  0  0
    5.1675  -10.6871    5.9941 H   0  0  0  0  0  0  0  0  0  0  0  0
    3.7029  -10.5074   11.0011 H   0  0  0  0  0  0  0  0  0  0  0  0
    5.6565   -9.4280   12.1596 H   0  0  0  0  0  0  0  0  0  0  0  0
    6.5060   -9.4914   10.6318 H   0  0  0  0  0  0  0  0  0  0  0  0
    8.2820  -10.8374   10.9303 H   0  0  0  0  0  0  0  0  0  0  0  0
    9.3242  -12.8902   11.7837 H   0  0  0  0  0  0  0  0  0  0  0  0
    7.9660  -14.5594   13.0171 H   0  0  0  0  0  0  0  0  0  0  0  0
    5.5468  -14.1582   13.3748 H   0  0  0  0  0  0  0  0  0  0  0  0
    4.4745  -12.1099   12.5253 H   0  0  0  0  0  0  0  0  0  0  0  0
    2.1698   -9.0683   11.9295 H   0  0  0  0  0  0  0  0  0  0  0  0
    1.7095   -9.0487   10.2171 H   0  0  0  0  0  0  0  0  0  0  0  0
    1.8772   -7.5197   11.1313 H   0  0  0  0  0  0  0  0  0  0  0  0
    3.2272   -5.8093   11.0806 H   0  0  0  0  0  0  0  0  0  0  0  0
    2.2686   -4.8573    9.3053 H   0  0  0  0  0  0  0  0  0  0  0  0
    3.4754   -5.2118    8.1623 H   0  0  0  0  0  0  0  0  0  0  0  0
    0.1737   -5.5894    8.3369 H   0  0  0  0  0  0  0  0  0  0  0  0
   -1.1466   -7.2931    7.1044 H   0  0  0  0  0  0  0  0  0  0  0  0
   -0.1034   -9.4420    6.4082 H   0  0  0  0  0  0  0  0  0  0  0  0
    2.2989   -9.8053    6.8412 H   0  0  0  0  0  0  0  0  0  0  0  0
    3.6075   -7.9972    7.8842 H   0  0  0  0  0  0  0  0  0  0  0  0
    4.5664   -4.0429   10.6459 H   0  0  0  0  0  0  0  0  0  0  0  0
    7.1537   -6.6259    9.3225 H   0  0  0  0  0  0  0  0  0  0  0  0
    8.8683   -5.2388   11.4698 H   0  0  0  0  0  0  0  0  0  0  0  0
    9.1638   -8.0256   10.2450 H   0  0  0  0  0  0  0  0  0  0  0  0
   10.0685   -7.4473   11.6412 H   0  0  0  0  0  0  0  0  0  0  0  0
   10.2988   -6.6566   10.0965 H   0  0  0  0  0  0  0  0  0  0  0  0
    7.4083   -7.8060   12.0904 H   0  0  0  0  0  0  0  0  0  0  0  0
    6.7440   -6.1998   12.5167 H   0  0  0  0  0  0  0  0  0  0  0  0
    8.2929   -6.7460   13.1504 H   0  0  0  0  0  0  0  0  0  0  0  0
    8.8420   -3.5897   10.1924 H   0  0  0  0  0  0  0  0  0  0  0  0
    8.5793   -3.0145    8.5395 H   0  0  0  0  0  0  0  0  0  0  0  0
   10.1087   -3.8359    9.0582 H   0  0  0  0  0  0  0  0  0  0  0  0
    8.7109   -5.0777    5.7353 H   0  0  0  0  0  0  0  0  0  0  0  0
    9.9718   -3.3468    7.0567 H   0  0  0  0  0  0  0  0  0  0  0  0
   12.5663   -4.8496    6.5154 H   0  0  0  0  0  0  0  0  0  0  0  0
   11.6574   -5.1889    7.9918 H   0  0  0  0  0  0  0  0  0  0  0  0
   12.2409   -3.5597    7.6851 H   0  0  0  0  0  0  0  0  0  0  0  0
    9.8887   -3.2148    4.5924 H   0  0  0  0  0  0  0  0  0  0  0  0
   11.4950   -3.9331    4.5257 H   0  0  0  0  0  0  0  0  0  0  0  0
   10.7590   -1.3752    6.0756 H   0  0  0  0  0  0  0  0  0  0  0  0
   11.5451   -1.4154    4.4915 H   0  0  0  0  0  0  0  0  0  0  0  0
   12.3908   -2.0405    5.9131 H   0  0  0  0  0  0  0  0  0  0  0  0
    8.2970   -6.6039    4.2175 H   0  0  0  0  0  0  0  0  0  0  0  0
    6.8496  -10.1373    4.9477 H   0  0  0  0  0  0  0  0  0  0  0  0
    7.2008   -9.9332    3.2791 H   0  0  0  0  0  0  0  0  0  0  0  0
    6.2722   -8.7269    4.1831 H   0  0  0  0  0  0  0  0  0  0  0  0
    9.2249  -10.5143    5.5610 H   0  0  0  0  0  0  0  0  0  0  0  0
   10.4617   -9.3438    5.2225 H   0  0  0  0  0  0  0  0  0  0  0  0
    9.7342  -10.2759    3.8904 H   0  0  0  0  0  0  0  0  0  0  0  0
    8.9107   -7.9408    6.4257 H   0  0  0  0  0  0  0  0  0  0  0  0
   10.0264   -8.8266    1.8859 H   0  0  0  0  0  0  0  0  0  0  0  0
    8.9076   -8.4283    0.5594 H   0  0  0  0  0  0  0  0  0  0  0  0
    8.4334   -9.5996    1.7512 H   0  0  0  0  0  0  0  0  0  0  0  0
    6.5654   -8.1388    0.4562 H   0  0  0  0  0  0  0  0  0  0  0  0
    6.4658   -6.3770   -1.0892 H   0  0  0  0  0  0  0  0  0  0  0  0
    6.4581   -5.1183    0.0833 H   0  0  0  0  0  0  0  0  0  0  0  0
    8.8359   -6.8101   -0.8299 H   0  0  0  0  0  0  0  0  0  0  0  0
    8.2670   -3.8275   -1.1162 H   0  0  0  0  0  0  0  0  0  0  0  0
    7.9591   -5.0483   -2.3734 H   0  0  0  0  0  0  0  0  0  0  0  0
    9.6130   -4.7267   -1.8370 H   0  0  0  0  0  0  0  0  0  0  0  0
    8.9393   -4.7386    1.4211 H   0  0  0  0  0  0  0  0  0  0  0  0
   10.2832   -4.9420    0.3183 H   0  0  0  0  0  0  0  0  0  0  0  0
    9.8015   -6.2648    1.2784 H   0  0  0  0  0  0  0  0  0  0  0  0
    4.4661   -7.3351    0.1143 H   0  0  0  0  0  0  0  0  0  0  0  0
    4.5817   -6.2888    3.6020 H   0  0  0  0  0  0  0  0  0  0  0  0
    1.6975   -6.4909    2.9948 H   0  0  0  0  0  0  0  0  0  0  0  0
    2.6260   -5.5785    5.7807 H   0  0  0  0  0  0  0  0  0  0  0  0
    0.9996   -6.1111    5.3123 H   0  0  0  0  0  0  0  0  0  0  0  0
    1.6096   -4.6061    4.7368 H   0  0  0  0  0  0  0  0  0  0  0  0
    3.4246   -8.3768    3.5142 H   0  0  0  0  0  0  0  0  0  0  0  0
    1.9374   -8.3749    4.4741 H   0  0  0  0  0  0  0  0  0  0  0  0
    3.4547   -7.7431    5.1557 H   0  0  0  0  0  0  0  0  0  0  0  0
    1.8186   -3.8011    2.9282 H   0  0  0  0  0  0  0  0  0  0  0  0
    3.0354   -3.4880    1.6970 H   0  0  0  0  0  0  0  0  0  0  0  0
    2.9516   -2.4596    3.1371 H   0  0  0  0  0  0  0  0  0  0  0  0
  1  2  1  0  0  0  0
  1 80  1  0  0  0  0
  1 81  1  0  0  0  0
  1 82  1  0  0  0  0
  2 83  1  0  0  0  0
  2 84  1  0  0  0  0
  3  4  1  0  0  0  0
  3  2  1  0  0  0  0
  3 85  1  1  0  0  0
  4 86  1  0  0  0  0
  4 87  1  0  0  0  0
  4 88  1  0  0  0  0
  5  6  1  0  0  0  0
  5 78  1  0  0  0  0
  5  3  1  0  0  0  0
  5 89  1  1  0  0  0
  6  7  1  0  0  0  0
  6 90  1  0  0  0  0
  7  8  2  0  0  0  0
  7  9  1  0  0  0  0
  9 10  1  0  0  0  0
  9 13  1  0  0  0  0
  9 91  1  1  0  0  0
 10 11  1  0  0  0  0
 10 92  1  0  0  0  0
 10 93  1  0  0  0  0
 11 12  1  0  0  0  0
 11 94  1  0  0  0  0
 11 95  1  0  0  0  0
 12 13  1  0  0  0  0
 12 96  1  0  0  0  0
 12 97  1  0  0  0  0
 13 14  1  0  0  0  0
 14 15  2  0  0  0  0
 14 16  1  0  0  0  0
 16 17  1  0  0  0  0
 16 24  1  0  0  0  0
 16 98  1  1  0  0  0
 17 18  1  0  0  0  0
 17 99  1  0  0  0  0
 17100  1  0  0  0  0
 18 19  1  0  0  0  0
 18 23  2  0  0  0  0
 19 20  2  0  0  0  0
 19101  1  0  0  0  0
 20 21  1  0  0  0  0
 20102  1  0  0  0  0
 21 22  2  0  0  0  0
 21103  1  0  0  0  0
 22 23  1  0  0  0  0
 22104  1  0  0  0  0
 23105  1  0  0  0  0
 24 25  1  0  0  0  0
 24 26  1  0  0  0  0
 25106  1  0  0  0  0
 25107  1  0  0  0  0
 25108  1  0  0  0  0
 26 27  2  0  0  0  0
 26 28  1  0  0  0  0
 28 36  1  0  0  0  0
 28 29  1  0  0  0  0
 28109  1  1  0  0  0
 29 30  1  0  0  0  0
 29110  1  0  0  0  0
 29111  1  0  0  0  0
 30 31  1  0  0  0  0
 30 35  2  0  0  0  0
 31 32  2  0  0  0  0
 31112  1  0  0  0  0
 32 33  1  0  0  0  0
 32113  1  0  0  0  0
 33 34  2  0  0  0  0
 33114  1  0  0  0  0
 34 35  1  0  0  0  0
 34115  1  0  0  0  0
 35116  1  0  0  0  0
 36 37  1  0  0  0  0
 36117  1  0  0  0  0
 37 38  2  0  0  0  0
 37 39  1  0  0  0  0
 39 43  1  0  0  0  0
 39 40  1  0  0  0  0
 39118  1  6  0  0  0
 40 41  1  0  0  0  0
 40 42  1  0  0  0  0
 40119  1  0  0  0  0
 41120  1  0  0  0  0
 41121  1  0  0  0  0
 41122  1  0  0  0  0
 42123  1  0  0  0  0
 42124  1  0  0  0  0
 42125  1  0  0  0  0
 43 44  1  0  0  0  0
 43 45  1  0  0  0  0
 44126  1  0  0  0  0
 44127  1  0  0  0  0
 44128  1  0  0  0  0
 45 46  2  0  0  0  0
 45 47  1  0  0  0  0
 47 48  1  0  0  0  0
 47 52  1  0  0  0  0
 47129  1  6  0  0  0
 48 49  1  0  0  0  0
 48 50  1  0  0  0  0
 48130  1  1  0  0  0
 49131  1  0  0  0  0
 49132  1  0  0  0  0
 49133  1  0  0  0  0
 50 51  1  0  0  0  0
 50134  1  0  0  0  0
 50135  1  0  0  0  0
 51136  1  0  0  0  0
 51137  1  0  0  0  0
 51138  1  0  0  0  0
 52 53  1  0  0  0  0
 53 54  2  0  0  0  0
 53 55  1  0  0  0  0
 55 60  1  0  0  0  0
 55 56  1  0  0  0  0
 55139  1  1  0  0  0
 56 57  1  0  0  0  0
 56 58  1  0  0  0  0
 56 59  1  0  0  0  0
 57140  1  0  0  0  0
 57141  1  0  0  0  0
 57142  1  0  0  0  0
 58143  1  0  0  0  0
 58144  1  0  0  0  0
 58145  1  0  0  0  0
 59146  1  0  0  0  0
 60 61  1  0  0  0  0
 60 62  1  0  0  0  0
 61147  1  0  0  0  0
 61148  1  0  0  0  0
 61149  1  0  0  0  0
 62 63  2  0  0  0  0
 62 64  1  0  0  0  0
 64 69  1  0  0  0  0
 64 65  1  0  0  0  0
 64150  1  6  0  0  0
 65 66  1  0  0  0  0
 65151  1  0  0  0  0
 65152  1  0  0  0  0
 66 67  1  0  0  0  0
 66 68  1  0  0  0  0
 66153  1  0  0  0  0
 67154  1  0  0  0  0
 67155  1  0  0  0  0
 67156  1  0  0  0  0
 68157  1  0  0  0  0
 68158  1  0  0  0  0
 68159  1  0  0  0  0
 69 70  1  0  0  0  0
 69160  1  0  0  0  0
 70 71  2  0  0  0  0
 70 72  1  0  0  0  0
 72 76  1  0  0  0  0
 72 73  1  0  0  0  0
 72161  1  1  0  0  0
 73 74  1  0  0  0  0
 73 75  1  0  0  0  0
 73162  1  0  0  0  0
 74163  1  0  0  0  0
 74164  1  0  0  0  0
 74165  1  0  0  0  0
 75166  1  0  0  0  0
 75167  1  0  0  0  0
 75168  1  0  0  0  0
 76 77  1  0  0  0  0
 76 78  1  0  0  0  0
 77169  1  0  0  0  0
 77170  1  0  0  0  0
 77171  1  0  0  0  0
 78 79  2  0  0  0  0
M  END
>  <Energy>
646.34

$$$$