213039
  -OEChem-03242010093D

 75 78  0     1  0  0  0  0  0999 V2000
   -3.9813   -0.3289   -1.2954 S   0  0  0  0  0  0  0  0  0  0  0  0
    4.7693    3.4750    0.1519 O   0  0  0  0  0  0  0  0  0  0  0  0
    4.1443    3.0535    2.4125 O   0  0  0  0  0  0  0  0  0  0  0  0
    3.4041    0.8137    0.1221 O   0  0  0  0  0  0  0  0  0  0  0  0
   -0.0166    0.8949   -2.6762 O   0  0  0  0  0  0  0  0  0  0  0  0
    3.4200   -0.4208   -1.8145 O   0  0  0  0  0  0  0  0  0  0  0  0
   -3.4118   -1.6410   -1.5412 O   0  0  0  0  0  0  0  0  0  0  0  0
   -5.0781    0.1392   -2.1225 O   0  0  0  0  0  0  0  0  0  0  0  0
    1.5125   -0.2047   -0.5132 N   0  0  0  0  0  0  0  0  0  0  0  0
   -2.7203    0.8497   -1.2863 N   0  0  2  0  0  0  0  0  0  0  0  0
   -5.8781   -0.2538    4.3659 N   0  0  0  0  0  0  0  0  0  0  0  0
    5.4819    1.4681    1.2273 C   0  0  2  0  0  0  0  0  0  0  0  0
    5.1730    2.9433    1.4200 C   0  0  1  0  0  0  0  0  0  0  0  0
    4.7750    1.1306   -0.0755 C   0  0  2  0  0  0  0  0  0  0  0  0
    4.9735    0.8318    2.4958 C   0  0  0  0  0  0  0  0  0  0  0  0
    4.8802    2.4368   -0.8342 C   0  0  0  0  0  0  0  0  0  0  0  0
    3.8587    1.7546    2.9420 C   0  0  0  0  0  0  0  0  0  0  0  0
    0.6191   -1.0108   -1.3210 C   0  0  2  0  0  0  0  0  0  0  0  0
   -0.5456   -0.1549   -1.8661 C   0  0  1  0  0  0  0  0  0  0  0  0
    2.8329    0.0187   -0.8313 C   0  0  0  0  0  0  0  0  0  0  0  0
   -1.3997    0.4481   -0.7476 C   0  0  0  0  0  0  0  0  0  0  0  0
    0.1570   -2.2235   -0.4900 C   0  0  0  0  0  0  0  0  0  0  0  0
   -3.0791    2.2411   -0.9065 C   0  0  0  0  0  0  0  0  0  0  0  0
   -2.2161    3.2728   -1.6431 C   0  0  0  0  0  0  0  0  0  0  0  0
    1.2096   -3.2919   -0.3293 C   0  0  0  0  0  0  0  0  0  0  0  0
   -4.5428   -0.3057    0.3840 C   0  0  0  0  0  0  0  0  0  0  0  0
   -2.3663    3.1774   -3.1621 C   0  0  0  0  0  0  0  0  0  0  0  0
   -2.4910    4.6986   -1.1634 C   0  0  0  0  0  0  0  0  0  0  0  0
    1.3026   -4.3252   -1.2617 C   0  0  0  0  0  0  0  0  0  0  0  0
    2.0903   -3.2466    0.7515 C   0  0  0  0  0  0  0  0  0  0  0  0
   -5.5653    0.5629    0.7655 C   0  0  0  0  0  0  0  0  0  0  0  0
   -3.9633   -1.1570    1.3251 C   0  0  0  0  0  0  0  0  0  0  0  0
    2.2760   -5.3132   -1.1133 C   0  0  0  0  0  0  0  0  0  0  0  0
    3.0638   -4.2346    0.8998 C   0  0  0  0  0  0  0  0  0  0  0  0
    3.1566   -5.2679   -0.0327 C   0  0  0  0  0  0  0  0  0  0  0  0
   -6.0087    0.5802    2.0877 C   0  0  0  0  0  0  0  0  0  0  0  0
   -4.4068   -1.1397    2.6476 C   0  0  0  0  0  0  0  0  0  0  0  0
   -5.4295   -0.2711    3.0289 C   0  0  0  0  0  0  0  0  0  0  0  0
    6.5600    1.3180    1.0940 H   0  0  0  0  0  0  0  0  0  0  0  0
    6.0441    3.5032    1.7761 H   0  0  0  0  0  0  0  0  0  0  0  0
    5.2945    0.3112   -0.5852 H   0  0  0  0  0  0  0  0  0  0  0  0
    5.7705    0.8497    3.2493 H   0  0  0  0  0  0  0  0  0  0  0  0
    4.6505   -0.2069    2.3824 H   0  0  0  0  0  0  0  0  0  0  0  0
    4.0961    2.5785   -1.5831 H   0  0  0  0  0  0  0  0  0  0  0  0
    5.8599    2.5412   -1.3129 H   0  0  0  0  0  0  0  0  0  0  0  0
    3.7833    1.8144    4.0317 H   0  0  0  0  0  0  0  0  0  0  0  0
    2.8861    1.4355    2.5545 H   0  0  0  0  0  0  0  0  0  0  0  0
    1.1851   -1.3676   -2.1914 H   0  0  0  0  0  0  0  0  0  0  0  0
   -1.1536   -0.7801   -2.5282 H   0  0  0  0  0  0  0  0  0  0  0  0
   -0.8832    1.2946   -0.2837 H   0  0  0  0  0  0  0  0  0  0  0  0
   -1.5658   -0.2663    0.0613 H   0  0  0  0  0  0  0  0  0  0  0  0
    1.1533    0.2121    0.3405 H   0  0  0  0  0  0  0  0  0  0  0  0
   -0.1802   -1.9154    0.5083 H   0  0  0  0  0  0  0  0  0  0  0  0
   -0.7190   -2.6809   -0.9684 H   0  0  0  0  0  0  0  0  0  0  0  0
   -2.9755    2.3614    0.1788 H   0  0  0  0  0  0  0  0  0  0  0  0
   -4.1285    2.4344   -1.1558 H   0  0  0  0  0  0  0  0  0  0  0  0
   -1.1597    3.0839   -1.4212 H   0  0  0  0  0  0  0  0  0  0  0  0
    0.5746    1.4298   -2.1195 H   0  0  0  0  0  0  0  0  0  0  0  0
   -2.1339    2.1775   -3.5378 H   0  0  0  0  0  0  0  0  0  0  0  0
   -1.6944    3.8832   -3.6622 H   0  0  0  0  0  0  0  0  0  0  0  0
   -3.3908    3.4169   -3.4676 H   0  0  0  0  0  0  0  0  0  0  0  0
   -1.8335    5.4149   -1.6673 H   0  0  0  0  0  0  0  0  0  0  0  0
   -3.5276    4.9890   -1.3649 H   0  0  0  0  0  0  0  0  0  0  0  0
   -2.3178    4.7851   -0.0856 H   0  0  0  0  0  0  0  0  0  0  0  0
    0.6240   -4.3701   -2.1095 H   0  0  0  0  0  0  0  0  0  0  0  0
    2.0287   -2.4480    1.4860 H   0  0  0  0  0  0  0  0  0  0  0  0
   -6.0298    1.2356    0.0503 H   0  0  0  0  0  0  0  0  0  0  0  0
   -3.1661   -1.8421    1.0511 H   0  0  0  0  0  0  0  0  0  0  0  0
    2.3488   -6.1173   -1.8397 H   0  0  0  0  0  0  0  0  0  0  0  0
    3.7497   -4.1991    1.7411 H   0  0  0  0  0  0  0  0  0  0  0  0
   -6.8060    1.2619    2.3727 H   0  0  0  0  0  0  0  0  0  0  0  0
   -3.9475   -1.8079    3.3716 H   0  0  0  0  0  0  0  0  0  0  0  0
    3.9148   -6.0369    0.0826 H   0  0  0  0  0  0  0  0  0  0  0  0
   -5.4582   -0.8703    5.0488 H   0  0  0  0  0  0  0  0  0  0  0  0
   -6.6191    0.3762    4.6431 H   0  0  0  0  0  0  0  0  0  0  0  0
  1  7  2  0  0  0  0
  1  8  2  0  0  0  0
  1 10  1  0  0  0  0
  1 26  1  0  0  0  0
  2 13  1  0  0  0  0
  2 16  1  0  0  0  0
  3 13  1  0  0  0  0
  3 17  1  0  0  0  0
  4 14  1  0  0  0  0
  4 20  1  0  0  0  0
  5 19  1  0  0  0  0
  5 58  1  0  0  0  0
  6 20  2  0  0  0  0
  9 18  1  0  0  0  0
  9 20  1  0  0  0  0
  9 52  1  0  0  0  0
 10 21  1  0  0  0  0
 10 23  1  0  0  0  0
 11 38  1  0  0  0  0
 11 74  1  0  0  0  0
 11 75  1  0  0  0  0
 12 13  1  0  0  0  0
 12 14  1  0  0  0  0
 12 15  1  0  0  0  0
 12 39  1  0  0  0  0
 13 40  1  0  0  0  0
 14 16  1  0  0  0  0
 14 41  1  0  0  0  0
 15 17  1  0  0  0  0
 15 42  1  0  0  0  0
 15 43  1  0  0  0  0
 16 44  1  0  0  0  0
 16 45  1  0  0  0  0
 17 46  1  0  0  0  0
 17 47  1  0  0  0  0
 18 19  1  0  0  0  0
 18 22  1  0  0  0  0
 18 48  1  0  0  0  0
 19 21  1  0  0  0  0
 19 49  1  0  0  0  0
 21 50  1  0  0  0  0
 21 51  1  0  0  0  0
 22 25  1  0  0  0  0
 22 53  1  0  0  0  0
 22 54  1  0  0  0  0
 23 24  1  0  0  0  0
 23 55  1  0  0  0  0
 23 56  1  0  0  0  0
 24 27  1  0  0  0  0
 24 28  1  0  0  0  0
 24 57  1  0  0  0  0
 25 29  2  0  0  0  0
 25 30  1  0  0  0  0
 26 31  2  0  0  0  0
 26 32  1  0  0  0  0
 27 59  1  0  0  0  0
 27 60  1  0  0  0  0
 27 61  1  0  0  0  0
 28 62  1  0  0  0  0
 28 63  1  0  0  0  0
 28 64  1  0  0  0  0
 29 33  1  0  0  0  0
 29 65  1  0  0  0  0
 30 34  2  0  0  0  0
 30 66  1  0  0  0  0
 31 36  1  0  0  0  0
 31 67  1  0  0  0  0
 32 37  2  0  0  0  0
 32 68  1  0  0  0  0
 33 35  2  0  0  0  0
 33 69  1  0  0  0  0
 34 35  1  0  0  0  0
 34 70  1  0  0  0  0
 35 73  1  0  0  0  0
 36 38  2  0  0  0  0
 36 71  1  0  0  0  0
 37 38  1  0  0  0  0
 37 72  1  0  0  0  0
M  END
> <PUBCHEM_COMPOUND_CID>
213039

> <PUBCHEM_CONFORMER_RMSD>
1.4

> <PUBCHEM_CONFORMER_DIVERSEORDER>
1
87
103
161
172
122
84
197
154
4
178
65
47
190
142
177
9
185
112
71
192
169
38
158
181
110
176
91
64
17
188
210
120
104
54
203
105
48
205
119
167
139
129
93
136
193
62
162
200
148
126
60
211
131
2
79
88
144
97
43
85
175
166
44
149
150
151
204
101
98
18
155
51
114
152
57
67
130
123
113
109
29
63
171
184
206
189
180
140
92
94
90
195
45
107
99
160
73
135
209
168
30
207
164
36
146
8
187
76
77
11
147
134
39
20
37
80
46
165
143
34
170
128
96
7
186
115
68
61
201
78
24
125
202
42
41
108
82
116
19
59
86
95
23
124
199
196
153
28
69
14
74
127
49
81
26
66
118
53
198
100
31
13
12
121
173
70
191
35
25
163
182
58
208
75
22
111
106
55
89
117
194
83
27
16
141
6
145
174
50
10
137
183
33
52
3
40
15
133
138
157
156
21
56
32
132
159
102
72
179
5

> <PUBCHEM_MMFF94_PARTIAL_CHARGES>
46
1 1.45
10 -0.85
11 -0.9
13 0.56
14 0.28
16 0.28
17 0.28
18 0.3
19 0.28
2 -0.56
20 0.78
21 0.36
22 0.14
23 0.36
25 -0.14
26 -0.01
29 -0.15
3 -0.56
30 -0.15
31 -0.15
32 -0.15
33 -0.15
34 -0.15
35 -0.15
36 -0.15
37 -0.15
38 0.1
4 -0.43
5 -0.68
52 0.37
58 0.4
6 -0.57
65 0.15
66 0.15
67 0.15
68 0.15
69 0.15
7 -0.65
70 0.15
71 0.15
72 0.15
73 0.15
74 0.4
75 0.4
8 -0.65
9 -0.73

> <PUBCHEM_EFFECTIVE_ROTOR_COUNT>
14.2

> <PUBCHEM_PHARMACOPHORE_FEATURES>
15
1 11 cation
1 11 donor
1 2 acceptor
1 3 acceptor
1 5 acceptor
1 5 donor
1 6 acceptor
1 7 acceptor
1 8 acceptor
1 9 donor
3 24 27 28 hydrophobe
5 2 12 13 14 16 rings
5 3 12 13 15 17 rings
6 25 29 30 33 34 35 rings
6 26 31 32 36 37 38 rings

> <PUBCHEM_HEAVY_ATOM_COUNT>
38

> <PUBCHEM_ATOM_DEF_STEREO_COUNT>
5

> <PUBCHEM_ATOM_UDEF_STEREO_COUNT>
0

> <PUBCHEM_BOND_DEF_STEREO_COUNT>
0

> <PUBCHEM_BOND_UDEF_STEREO_COUNT>
0

> <PUBCHEM_ISOTOPIC_ATOM_COUNT>
0

> <PUBCHEM_COMPONENT_COUNT>
1

> <PUBCHEM_CACTVS_TAUTO_COUNT>
2

> <PUBCHEM_CONFORMER_ID>
0003402F00000001

> <PUBCHEM_MMFF94_ENERGY>
91.0714

> <PUBCHEM_FEATURE_SELFOVERLAP>
76.625

> <PUBCHEM_SHAPE_FINGERPRINT>
10842077 115 17897989266443278301
11070050 100 18341341067062059490
11399510 152 18194431960174207651
12422481 6 17967800678891211314
12988421 55 18200021971346499160
13540713 4 18042964260111982599
15131766 46 18059850684446332633
17913733 40 18412823594722168010
18393751 57 18266171923351763569
21223535 225 15410896305836384984
255183 313 18194963178408565582
3178227 256 18410300177710099202
4015057 19 17691942900653593989
42626532 9 17753340768004357675
469060 322 18337098090418809733
5171179 24 18193551164686188783
613672 6 17749115500223438343
6695519 79 18341609360414698145

> <PUBCHEM_SHAPE_MULTIPOLES>
729.84
14.38
6.58
3.48
5.81
5.24
2.6
-6.88
11.58
-9.23
-2.21
4.1
-1.51
5.06

> <PUBCHEM_SHAPE_SELFOVERLAP>
1518.518

> <PUBCHEM_SHAPE_VOLUME>
416.9

> <PUBCHEM_COORDINATE_TYPE>
2
5
10

$$$$