11666294
  -OEChem-03242010103D

 35 37  0     0  0  0  0  0  0999 V2000
   -3.5929    3.1975    0.6109 O   0  0  0  0  0  0  0  0  0  0  0  0
   -5.7423   -0.7438   -1.0112 O   0  0  0  0  0  0  0  0  0  0  0  0
    6.2618    1.6972   -0.4088 O   0  0  0  0  0  0  0  0  0  0  0  0
   -1.0494   -0.9082    0.1959 C   0  0  0  0  0  0  0  0  0  0  0  0
    1.3665   -0.9521    0.1791 C   0  0  0  0  0  0  0  0  0  0  0  0
   -2.2904   -0.1768    0.0605 C   0  0  0  0  0  0  0  0  0  0  0  0
    0.1700   -0.2466    0.0501 C   0  0  0  0  0  0  0  0  0  0  0  0
    2.6316   -0.2675    0.0274 C   0  0  0  0  0  0  0  0  0  0  0  0
   -1.0724   -2.2757    0.4705 C   0  0  0  0  0  0  0  0  0  0  0  0
    1.3431   -2.3197    0.4539 C   0  0  0  0  0  0  0  0  0  0  0  0
    0.1239   -2.9813    0.5997 C   0  0  0  0  0  0  0  0  0  0  0  0
   -3.4322   -0.8212   -0.4155 C   0  0  0  0  0  0  0  0  0  0  0  0
   -2.3444    1.1736    0.4052 C   0  0  0  0  0  0  0  0  0  0  0  0
    3.7417   -0.9545   -0.4633 C   0  0  0  0  0  0  0  0  0  0  0  0
    2.7412    1.0799    0.3715 C   0  0  0  0  0  0  0  0  0  0  0  0
   -3.5401    1.8799    0.2737 C   0  0  0  0  0  0  0  0  0  0  0  0
   -4.6280   -0.1151   -0.5469 C   0  0  0  0  0  0  0  0  0  0  0  0
   -4.6820    1.2355   -0.2023 C   0  0  0  0  0  0  0  0  0  0  0  0
    4.9617   -0.2943   -0.6097 C   0  0  0  0  0  0  0  0  0  0  0  0
    3.9611    1.7402    0.2249 C   0  0  0  0  0  0  0  0  0  0  0  0
    5.0715    1.0531   -0.2658 C   0  0  0  0  0  0  0  0  0  0  0  0
    0.1879    0.8020   -0.2339 H   0  0  0  0  0  0  0  0  0  0  0  0
   -1.9958   -2.8268    0.6249 H   0  0  0  0  0  0  0  0  0  0  0  0
    2.2481   -2.9041    0.5953 H   0  0  0  0  0  0  0  0  0  0  0  0
    0.1061   -4.0432    0.8278 H   0  0  0  0  0  0  0  0  0  0  0  0
   -3.4161   -1.8639   -0.7223 H   0  0  0  0  0  0  0  0  0  0  0  0
   -1.4823    1.6975    0.8105 H   0  0  0  0  0  0  0  0  0  0  0  0
    3.6966   -1.9949   -0.7733 H   0  0  0  0  0  0  0  0  0  0  0  0
    1.9134    1.6476    0.7877 H   0  0  0  0  0  0  0  0  0  0  0  0
   -5.6139    1.7858   -0.3044 H   0  0  0  0  0  0  0  0  0  0  0  0
    5.8179   -0.8386   -0.9994 H   0  0  0  0  0  0  0  0  0  0  0  0
    4.0427    2.7880    0.5012 H   0  0  0  0  0  0  0  0  0  0  0  0
   -2.7149    3.4817    0.9180 H   0  0  0  0  0  0  0  0  0  0  0  0
   -5.5270   -1.6737   -1.1983 H   0  0  0  0  0  0  0  0  0  0  0  0
    6.9186    1.0714   -0.7595 H   0  0  0  0  0  0  0  0  0  0  0  0
  1 16  1  0  0  0  0
  1 33  1  0  0  0  0
  2 17  1  0  0  0  0
  2 34  1  0  0  0  0
  3 21  1  0  0  0  0
  3 35  1  0  0  0  0
  4  6  1  0  0  0  0
  4  7  1  0  0  0  0
  4  9  2  0  0  0  0
  5  7  2  0  0  0  0
  5  8  1  0  0  0  0
  5 10  1  0  0  0  0
  6 12  2  0  0  0  0
  6 13  1  0  0  0  0
  7 22  1  0  0  0  0
  8 14  2  0  0  0  0
  8 15  1  0  0  0  0
  9 11  1  0  0  0  0
  9 23  1  0  0  0  0
 10 11  2  0  0  0  0
 10 24  1  0  0  0  0
 11 25  1  0  0  0  0
 12 17  1  0  0  0  0
 12 26  1  0  0  0  0
 13 16  2  0  0  0  0
 13 27  1  0  0  0  0
 14 19  1  0  0  0  0
 14 28  1  0  0  0  0
 15 20  2  0  0  0  0
 15 29  1  0  0  0  0
 16 18  1  0  0  0  0
 17 18  2  0  0  0  0
 18 30  1  0  0  0  0
 19 21  2  0  0  0  0
 19 31  1  0  0  0  0
 20 21  1  0  0  0  0
 20 32  1  0  0  0  0
M  END
> <PUBCHEM_COMPOUND_CID>
11666294

> <PUBCHEM_CONFORMER_RMSD>
0.6

> <PUBCHEM_CONFORMER_DIVERSEORDER>
1
2

> <PUBCHEM_MMFF94_PARTIAL_CHARGES>
31
1 -0.53
10 -0.15
11 -0.15
12 -0.15
13 -0.15
14 -0.15
15 -0.15
16 0.08
17 0.08
18 -0.15
19 -0.15
2 -0.53
20 -0.15
21 0.08
22 0.15
23 0.15
24 0.15
25 0.15
26 0.15
27 0.15
28 0.15
29 0.15
3 -0.53
30 0.15
31 0.15
32 0.15
33 0.45
34 0.45
35 0.45
7 -0.15
9 -0.15

> <PUBCHEM_EFFECTIVE_ROTOR_COUNT>
2

> <PUBCHEM_PHARMACOPHORE_FEATURES>
6
1 1 donor
1 2 donor
1 3 donor
6 4 5 7 9 10 11 rings
6 6 12 13 16 17 18 rings
6 8 14 15 19 20 21 rings

> <PUBCHEM_HEAVY_ATOM_COUNT>
21

> <PUBCHEM_ATOM_DEF_STEREO_COUNT>
0

> <PUBCHEM_ATOM_UDEF_STEREO_COUNT>
0

> <PUBCHEM_BOND_DEF_STEREO_COUNT>
0

> <PUBCHEM_BOND_UDEF_STEREO_COUNT>
0

> <PUBCHEM_ISOTOPIC_ATOM_COUNT>
0

> <PUBCHEM_COMPONENT_COUNT>
1

> <PUBCHEM_CACTVS_TAUTO_COUNT>
10

> <PUBCHEM_CONFORMER_ID>
00B2037600000001

> <PUBCHEM_MMFF94_ENERGY>
73.2928

> <PUBCHEM_FEATURE_SELFOVERLAP>
30.448

> <PUBCHEM_SHAPE_FINGERPRINT>
10411042 1 17255680794241115634
10498660 4 18336823096194697301
10591671 39 18114473365087987431
10595046 47 18341891879094900295
10670039 82 18408887313341279628
11265709 11 10303818691620349178
12107183 9 17619347611038309435
12390115 104 18339943552932599384
12403260 363 18337663114403818842
12596602 18 16805885199086059504
12916748 109 18410860970624106106
14528608 73 18410851058002967975
14739800 52 18268409370154801944
14767858 380 18339348782331626815
14790565 3 18336272262576282508
14848178 96 18336825290843792720
14931854 50 18343301457207395540
15183329 4 18411424986573416166
15196674 1 18411138004562291656
18608769 82 18266181810688382171
20645477 70 17274837826724705830
21049683 271 18335976584996987437
21857420 4 15115003574208877309
221357 26 18131630101493702617
22393880 68 18270397174817573925
22950370 63 9871744706806728402
23402539 116 18339918324310767414
23402655 69 18272652346539100782
23559900 14 18270962457602686880
245318 6 17605575429227058660
26918003 58 11891328759727082596
2838139 119 18413386553655699508
335352 9 18408324376926725638
3472631 163 18127694821156874421
34797466 226 17417818382660917868
351380 3 11600009846918192988
3545911 37 18410576227451453302
394222 165 18189330182502092050
4258327 124 16951704672907606238
474 4 18113339721180621013
495365 180 17560792286831771506
5104073 3 18114748135488699091
5486654 2 18411414055813394343
5486654 36 10807639130572597645
59755656 520 18260822735095825814
6328613 192 18187937231157747020
633830 44 18340204081433227710
67856867 119 18264195924958053867
7808743 9 18335420222763723080
7970288 3 10159694677366146852
84936 182 18340763724166612859
8863177 126 12606536953623773301
9981440 41 18334293175684109099

> <PUBCHEM_SHAPE_MULTIPOLES>
414.56
12.5
2.81
0.78
3.57
0.18
0.03
-7.41
3.23
-0.65
-0.72
-0.19
0.06
-0.57

> <PUBCHEM_SHAPE_SELFOVERLAP>
924.236

> <PUBCHEM_SHAPE_VOLUME>
222.1

> <PUBCHEM_COORDINATE_TYPE>
2
5
10

$$$$