44451866
  -OEChem-03242010103D

 59 62  0     1  0  0  0  0  0999 V2000
   -8.1710   -2.3808    0.3099 Br  0  0  0  0  0  0  0  0  0  0  0  0
    8.3170    2.1910   -0.5058 O   0  0  0  0  0  0  0  0  0  0  0  0
    9.1662   -0.4472   -0.3190 O   0  0  0  0  0  0  0  0  0  0  0  0
   -5.7075   -1.1234   -1.2961 O   0  0  0  0  0  0  0  0  0  0  0  0
    2.7833   -0.2939    0.2974 N   0  0  1  0  0  0  0  0  0  0  0  0
   -5.0319    0.3704    0.3893 N   0  0  0  0  0  0  0  0  0  0  0  0
    3.1026   -1.5665   -0.3611 C   0  0  0  0  0  0  0  0  0  0  0  0
    3.6278    0.7854   -0.2442 C   0  0  0  0  0  0  0  0  0  0  0  0
    4.5289   -1.9951   -0.0016 C   0  0  0  0  0  0  0  0  0  0  0  0
    5.1024    0.4532   -0.2343 C   0  0  0  0  0  0  0  0  0  0  0  0
    5.5324   -0.8830   -0.1630 C   0  0  0  0  0  0  0  0  0  0  0  0
    1.3680    0.0354    0.1321 C   0  0  0  0  0  0  0  0  0  0  0  0
    0.4960   -0.8158    1.0555 C   0  0  0  0  0  0  0  0  0  0  0  0
    6.0502    1.4777   -0.3615 C   0  0  0  0  0  0  0  0  0  0  0  0
    6.9029   -1.1721   -0.1823 C   0  0  0  0  0  0  0  0  0  0  0  0
    7.4123    1.1791   -0.3892 C   0  0  0  0  0  0  0  0  0  0  0  0
    7.8382   -0.1440   -0.2974 C   0  0  0  0  0  0  0  0  0  0  0  0
   -0.9683   -0.5017    0.8791 C   0  0  0  0  0  0  0  0  0  0  0  0
   -1.5666    0.4920    1.6540 C   0  0  0  0  0  0  0  0  0  0  0  0
   -1.7243   -1.2045   -0.0589 C   0  0  0  0  0  0  0  0  0  0  0  0
   -2.9211    0.7828    1.4909 C   0  0  0  0  0  0  0  0  0  0  0  0
   -3.0787   -0.9139   -0.2221 C   0  0  0  0  0  0  0  0  0  0  0  0
   -3.6771    0.0796    0.5527 C   0  0  0  0  0  0  0  0  0  0  0  0
    8.7948    2.7754    0.7044 C   0  0  0  0  0  0  0  0  0  0  0  0
    9.5176   -1.8260   -0.2201 C   0  0  0  0  0  0  0  0  0  0  0  0
   -5.9416   -0.2254   -0.4945 C   0  0  0  0  0  0  0  0  0  0  0  0
   -7.3354    0.2849   -0.4140 C   0  0  0  0  0  0  0  0  0  0  0  0
   -8.4095   -0.5380   -0.0753 C   0  0  0  0  0  0  0  0  0  0  0  0
   -7.5513    1.6347   -0.6911 C   0  0  0  0  0  0  0  0  0  0  0  0
   -9.6995   -0.0111   -0.0136 C   0  0  0  0  0  0  0  0  0  0  0  0
   -8.8413    2.1617   -0.6296 C   0  0  0  0  0  0  0  0  0  0  0  0
   -9.9155    1.3389   -0.2908 C   0  0  0  0  0  0  0  0  0  0  0  0
    3.0021   -1.4744   -1.4514 H   0  0  0  0  0  0  0  0  0  0  0  0
    2.4369   -2.3768   -0.0487 H   0  0  0  0  0  0  0  0  0  0  0  0
    3.4743    1.6856    0.3643 H   0  0  0  0  0  0  0  0  0  0  0  0
    3.3417    1.0207   -1.2782 H   0  0  0  0  0  0  0  0  0  0  0  0
    4.8112   -2.8448   -0.6347 H   0  0  0  0  0  0  0  0  0  0  0  0
    4.5577   -2.3310    1.0429 H   0  0  0  0  0  0  0  0  0  0  0  0
    1.2011    1.0883    0.3982 H   0  0  0  0  0  0  0  0  0  0  0  0
    1.0546   -0.0687   -0.9156 H   0  0  0  0  0  0  0  0  0  0  0  0
    0.7805   -0.6482    2.1030 H   0  0  0  0  0  0  0  0  0  0  0  0
    0.6332   -1.8888    0.8825 H   0  0  0  0  0  0  0  0  0  0  0  0
    5.7235    2.5122   -0.4396 H   0  0  0  0  0  0  0  0  0  0  0  0
    7.1740   -2.2197   -0.1023 H   0  0  0  0  0  0  0  0  0  0  0  0
   -0.9874    1.0477    2.3867 H   0  0  0  0  0  0  0  0  0  0  0  0
   -1.2675   -1.9792   -0.6694 H   0  0  0  0  0  0  0  0  0  0  0  0
   -3.3742    1.5599    2.1011 H   0  0  0  0  0  0  0  0  0  0  0  0
   -3.5952   -1.5010   -0.9681 H   0  0  0  0  0  0  0  0  0  0  0  0
    9.5123    3.5591    0.4464 H   0  0  0  0  0  0  0  0  0  0  0  0
    9.3015    2.0261    1.3207 H   0  0  0  0  0  0  0  0  0  0  0  0
    7.9695    3.2268    1.2640 H   0  0  0  0  0  0  0  0  0  0  0  0
   10.6107   -1.8825   -0.2546 H   0  0  0  0  0  0  0  0  0  0  0  0
    9.1435   -2.4007   -1.0742 H   0  0  0  0  0  0  0  0  0  0  0  0
    9.2084   -2.2537    0.7397 H   0  0  0  0  0  0  0  0  0  0  0  0
   -5.3947    1.1008    0.9985 H   0  0  0  0  0  0  0  0  0  0  0  0
   -6.7266    2.2891   -0.9621 H   0  0  0  0  0  0  0  0  0  0  0  0
  -10.5492   -0.6366    0.2483 H   0  0  0  0  0  0  0  0  0  0  0  0
   -9.0097    3.2125   -0.8466 H   0  0  0  0  0  0  0  0  0  0  0  0
  -10.9200    1.7493   -0.2432 H   0  0  0  0  0  0  0  0  0  0  0  0
  1 28  1  0  0  0  0
  2 16  1  0  0  0  0
  2 24  1  0  0  0  0
  3 17  1  0  0  0  0
  3 25  1  0  0  0  0
  4 26  2  0  0  0  0
  5  7  1  0  0  0  0
  5  8  1  0  0  0  0
  5 12  1  0  0  0  0
  6 23  1  0  0  0  0
  6 26  1  0  0  0  0
  6 55  1  0  0  0  0
  7  9  1  0  0  0  0
  7 33  1  0  0  0  0
  7 34  1  0  0  0  0
  8 10  1  0  0  0  0
  8 35  1  0  0  0  0
  8 36  1  0  0  0  0
  9 11  1  0  0  0  0
  9 37  1  0  0  0  0
  9 38  1  0  0  0  0
 10 11  1  0  0  0  0
 10 14  2  0  0  0  0
 11 15  2  0  0  0  0
 12 13  1  0  0  0  0
 12 39  1  0  0  0  0
 12 40  1  0  0  0  0
 13 18  1  0  0  0  0
 13 41  1  0  0  0  0
 13 42  1  0  0  0  0
 14 16  1  0  0  0  0
 14 43  1  0  0  0  0
 15 17  1  0  0  0  0
 15 44  1  0  0  0  0
 16 17  2  0  0  0  0
 18 19  2  0  0  0  0
 18 20  1  0  0  0  0
 19 21  1  0  0  0  0
 19 45  1  0  0  0  0
 20 22  2  0  0  0  0
 20 46  1  0  0  0  0
 21 23  2  0  0  0  0
 21 47  1  0  0  0  0
 22 23  1  0  0  0  0
 22 48  1  0  0  0  0
 24 49  1  0  0  0  0
 24 50  1  0  0  0  0
 24 51  1  0  0  0  0
 25 52  1  0  0  0  0
 25 53  1  0  0  0  0
 25 54  1  0  0  0  0
 26 27  1  0  0  0  0
 27 28  1  0  0  0  0
 27 29  2  0  0  0  0
 28 30  2  0  0  0  0
 29 31  1  0  0  0  0
 29 56  1  0  0  0  0
 30 32  1  0  0  0  0
 30 57  1  0  0  0  0
 31 32  2  0  0  0  0
 31 58  1  0  0  0  0
 32 59  1  0  0  0  0
M  END
> <PUBCHEM_COMPOUND_CID>
44451866

> <PUBCHEM_CONFORMER_RMSD>
1

> <PUBCHEM_CONFORMER_DIVERSEORDER>
3
13
106
23
53
95
111
107
109
51
63
57
26
112
19
91
5
108
97
84
70
42
24
40
105
114
115
31
14
47
45
65
17
99
85
103
60
94
58
1
32
83
113
62
18
82
52
43
73
116
2
78
92
44
66
16
87
28
4
36
110
88
72
100
6
76
89
27
22
35
10
30
8
55
64
21
9
93
54
56
104
75
33
29
59
81
71
77
67
86
11
79
20
98
46
50
102
12
38
69
41
74
90
7
49
25
37
68
39
34
15
101
80
96
48
61

> <PUBCHEM_MMFF94_PARTIAL_CHARGES>
43
1 -0.11
10 -0.14
11 -0.14
12 0.27
13 0.14
14 -0.15
15 -0.15
16 0.08
17 0.08
18 -0.14
19 -0.15
2 -0.36
20 -0.15
21 -0.15
22 -0.15
23 0.12
24 0.28
25 0.28
26 0.54
27 0.09
28 0.11
29 -0.15
3 -0.36
30 -0.15
31 -0.15
32 -0.15
4 -0.57
43 0.15
44 0.15
45 0.15
46 0.15
47 0.15
48 0.15
5 -0.81
55 0.37
56 0.15
57 0.15
58 0.15
59 0.15
6 -0.55
7 0.27
8 0.41
9 0.14

> <PUBCHEM_EFFECTIVE_ROTOR_COUNT>
8.8

> <PUBCHEM_PHARMACOPHORE_FEATURES>
10
1 1 hydrophobe
1 2 acceptor
1 3 acceptor
1 4 acceptor
1 5 cation
1 6 donor
6 10 11 14 15 16 17 rings
6 18 19 20 21 22 23 rings
6 27 28 29 30 31 32 rings
6 5 7 8 9 10 11 rings

> <PUBCHEM_HEAVY_ATOM_COUNT>
32

> <PUBCHEM_ATOM_DEF_STEREO_COUNT>
0

> <PUBCHEM_ATOM_UDEF_STEREO_COUNT>
0

> <PUBCHEM_BOND_DEF_STEREO_COUNT>
0

> <PUBCHEM_BOND_UDEF_STEREO_COUNT>
0

> <PUBCHEM_ISOTOPIC_ATOM_COUNT>
0

> <PUBCHEM_COMPONENT_COUNT>
1

> <PUBCHEM_CACTVS_TAUTO_COUNT>
2

> <PUBCHEM_CONFORMER_ID>
02A6481A00000003

> <PUBCHEM_MMFF94_ENERGY>
113.4766

> <PUBCHEM_FEATURE_SELFOVERLAP>
50.772

> <PUBCHEM_SHAPE_FINGERPRINT>
10 15 11746939781072583089
10533779 47 12973879256946722209
10625338 86 16008743615528826781
10883706 142 17022906740400361939
11061554 47 17530960289586089180
11135609 127 18115030839760252484
11135609 187 18408885127287367651
11315181 36 18272937120841927403
11409948 35 16443619083931750418
11456790 92 13767925719591964021
11607047 141 17168411681483710736
11638347 137 9295287253106753469
11672396 167 18058735672762062070
12013929 94 18410576232807613867
12082328 90 18334855022716976167
12089408 11 18342174483574215255
12643181 29 15769769174706458023
12664476 115 17458062660401075020
14118638 360 16558757754567628175
14150022 121 12468626211185781767
14251764 46 18342738502979780839
14344974 52 18260266374444467489
150020 25 18413110571657337003
15065858 18 18408602578040948291
15183329 4 17203608177895953091
15247644 1 15123791773350032204
15439362 3 18052534662824513728
15461852 350 18333735736574459415
15510794 2 18260271849858441923
1577012 14 17967524658865552755
15840311 113 18408326601666777900
1754911 235 18334293163236666607
17686467 74 17822012026213351525
1818759 1 12751518496595649701
19841028 212 18336263423386381906
20105231 36 10519995863924205336
21150785 3 18412545409901136227
21267235 1 9655582907261924210
21362267 2 18338783598336776572
21362857 166 16701754761547208372
21792934 111 18412257343194261272
21792961 116 18202565073855700019
22164985 6 17561074821805807837
232437 2 18408604755542147831
249057 3 17131828794221663021
3092352 35 18186237330082996579
335352 9 17632290182480769087
3633792 109 18409732837687691098
395649 100 17895195558823988475
4017518 198 14117795817963514589
44280117 145 18042974366534825483
45270241 37 18411704284012589062
4625314 4 18411139168630551182
5219985 9 15770056121239382331
5265222 85 18334574643136767859
5470011 282 18201721743045073574
57303763 39 9222644723341963640
5758199 1 17022620863061217083
58902169 19 18411416258313648173
5937810 71 18338798893843951977
6081469 158 18343584027843741588
67123 10 18408604769012293831
9663363 56 15195280915280907122
99344 41 18335140895292194591

> <PUBCHEM_SHAPE_MULTIPOLES>
636.92
40.64
2.21
0.98
6.59
0.42
-0.25
9.5
7.82
-1.49
0.09
0.65
0.11
1.05

> <PUBCHEM_SHAPE_SELFOVERLAP>
1357.521

> <PUBCHEM_SHAPE_VOLUME>
362.4

> <PUBCHEM_COORDINATE_TYPE>
2
5
10

$$$$