11267785
  -OEChem-03242010103D

 50 52  0     1  0  0  0  0  0999 V2000
    0.5845    3.1584   -2.3836 O   0  0  0  0  0  0  0  0  0  0  0  0
   -0.9328    1.5738   -0.6754 O   0  0  0  0  0  0  0  0  0  0  0  0
   -2.5562   -1.0875   -2.0206 O   0  0  0  0  0  0  0  0  0  0  0  0
    2.4872    0.8386   -0.2041 N   0  0  0  0  0  0  0  0  0  0  0  0
    3.4559    1.7689    0.3928 C   0  0  0  0  0  0  0  0  0  0  0  0
    3.1063   -0.4641   -0.4861 C   0  0  0  0  0  0  0  0  0  0  0  0
    4.0270    1.2095    1.6968 C   0  0  0  0  0  0  0  0  0  0  0  0
    3.6661   -1.0965    0.7890 C   0  0  0  0  0  0  0  0  0  0  0  0
    4.6521   -0.1643    1.4838 C   0  0  0  0  0  0  0  0  0  0  0  0
    1.9158    1.4082   -1.4240 C   0  0  0  0  0  0  0  0  0  0  0  0
    1.1367    2.6962   -1.1476 C   0  0  2  0  0  0  0  0  0  0  0  0
   -0.0010    2.5117   -0.1456 C   0  0  0  0  0  0  0  0  0  0  0  0
   -2.0174    1.2762    0.1057 C   0  0  0  0  0  0  0  0  0  0  0  0
   -2.6200    0.0238    0.0365 C   0  0  0  0  0  0  0  0  0  0  0  0
   -2.5082    2.2485    0.9721 C   0  0  0  0  0  0  0  0  0  0  0  0
   -3.7237   -0.2591    0.8412 C   0  0  0  0  0  0  0  0  0  0  0  0
   -2.1181   -1.0043   -0.8646 C   0  0  0  0  0  0  0  0  0  0  0  0
   -3.6122    1.9656    1.7768 C   0  0  0  0  0  0  0  0  0  0  0  0
   -4.2202    0.7118    1.7112 C   0  0  0  0  0  0  0  0  0  0  0  0
   -1.0738   -1.9882   -0.4516 C   0  0  0  0  0  0  0  0  0  0  0  0
   -0.5699   -1.9171    0.8266 C   0  0  0  0  0  0  0  0  0  0  0  0
   -0.6560   -2.9269   -1.3666 C   0  0  0  0  0  0  0  0  0  0  0  0
    0.4063   -2.8363    1.2116 C   0  0  0  0  0  0  0  0  0  0  0  0
    0.3203   -3.8459   -0.9817 C   0  0  0  0  0  0  0  0  0  0  0  0
    0.8514   -3.8010    0.3074 C   0  0  0  0  0  0  0  0  0  0  0  0
    2.9910    2.7220    0.6603 H   0  0  0  0  0  0  0  0  0  0  0  0
    4.2747    1.9853   -0.3060 H   0  0  0  0  0  0  0  0  0  0  0  0
    3.9094   -0.3617   -1.2278 H   0  0  0  0  0  0  0  0  0  0  0  0
    2.3607   -1.1472   -0.9088 H   0  0  0  0  0  0  0  0  0  0  0  0
    4.7788    1.8984    2.0983 H   0  0  0  0  0  0  0  0  0  0  0  0
    3.2283    1.1352    2.4461 H   0  0  0  0  0  0  0  0  0  0  0  0
    4.1576   -2.0458    0.5486 H   0  0  0  0  0  0  0  0  0  0  0  0
    2.8469   -1.3235    1.4802 H   0  0  0  0  0  0  0  0  0  0  0  0
    4.9603   -0.5908    2.4447 H   0  0  0  0  0  0  0  0  0  0  0  0
    5.5558   -0.0643    0.8701 H   0  0  0  0  0  0  0  0  0  0  0  0
    1.2394    0.6813   -1.8941 H   0  0  0  0  0  0  0  0  0  0  0  0
    2.6927    1.6081   -2.1751 H   0  0  0  0  0  0  0  0  0  0  0  0
    1.7972    3.4995   -0.8104 H   0  0  0  0  0  0  0  0  0  0  0  0
    0.3696    2.1864    0.8330 H   0  0  0  0  0  0  0  0  0  0  0  0
   -0.4707    3.4972   -0.0567 H   0  0  0  0  0  0  0  0  0  0  0  0
   -0.0558    2.4931   -2.6893 H   0  0  0  0  0  0  0  0  0  0  0  0
   -2.0978    3.2477    1.0550 H   0  0  0  0  0  0  0  0  0  0  0  0
   -4.2063   -1.2323    0.7989 H   0  0  0  0  0  0  0  0  0  0  0  0
   -4.0024    2.7226    2.4509 H   0  0  0  0  0  0  0  0  0  0  0  0
   -5.0804    0.4921    2.3366 H   0  0  0  0  0  0  0  0  0  0  0  0
   -0.8890   -1.1812    1.5564 H   0  0  0  0  0  0  0  0  0  0  0  0
   -1.0536   -2.9814   -2.3751 H   0  0  0  0  0  0  0  0  0  0  0  0
    0.8190   -2.8023    2.2157 H   0  0  0  0  0  0  0  0  0  0  0  0
    0.6678   -4.5963   -1.6858 H   0  0  0  0  0  0  0  0  0  0  0  0
    1.6122   -4.5158    0.6069 H   0  0  0  0  0  0  0  0  0  0  0  0
  1 11  1  0  0  0  0
  1 41  1  0  0  0  0
  2 12  1  0  0  0  0
  2 13  1  0  0  0  0
  3 17  2  0  0  0  0
  4  5  1  0  0  0  0
  4  6  1  0  0  0  0
  4 10  1  0  0  0  0
  5  7  1  0  0  0  0
  5 26  1  0  0  0  0
  5 27  1  0  0  0  0
  6  8  1  0  0  0  0
  6 28  1  0  0  0  0
  6 29  1  0  0  0  0
  7  9  1  0  0  0  0
  7 30  1  0  0  0  0
  7 31  1  0  0  0  0
  8  9  1  0  0  0  0
  8 32  1  0  0  0  0
  8 33  1  0  0  0  0
  9 34  1  0  0  0  0
  9 35  1  0  0  0  0
 10 11  1  0  0  0  0
 10 36  1  0  0  0  0
 10 37  1  0  0  0  0
 11 12  1  0  0  0  0
 11 38  1  0  0  0  0
 12 39  1  0  0  0  0
 12 40  1  0  0  0  0
 13 14  1  0  0  0  0
 13 15  2  0  0  0  0
 14 16  2  0  0  0  0
 14 17  1  0  0  0  0
 15 18  1  0  0  0  0
 15 42  1  0  0  0  0
 16 19  1  0  0  0  0
 16 43  1  0  0  0  0
 17 20  1  0  0  0  0
 18 19  2  0  0  0  0
 18 44  1  0  0  0  0
 19 45  1  0  0  0  0
 20 21  2  0  0  0  0
 20 22  1  0  0  0  0
 21 23  1  0  0  0  0
 21 46  1  0  0  0  0
 22 24  2  0  0  0  0
 22 47  1  0  0  0  0
 23 25  2  0  0  0  0
 23 48  1  0  0  0  0
 24 25  1  0  0  0  0
 24 49  1  0  0  0  0
 25 50  1  0  0  0  0
M  END
> <PUBCHEM_COMPOUND_CID>
11267785

> <PUBCHEM_CONFORMER_RMSD>
0.8

> <PUBCHEM_CONFORMER_DIVERSEORDER>
5
166
67
209
159
106
135
151
23
107
170
225
200
181
80
101
145
133
12
146
218
55
185
113
52
104
102
91
202
211
37
223
206
8
94
157
88
217
191
221
167
161
224
114
178
194
195
142
177
29
25
131
93
204
109
168
164
90
45
34
216
73
74
112
147
30
39
83
103
57
162
85
71
140
15
125
197
53
81
138
169
126
76
127
40
201
70
174
58
115
63
219
199
153
28
33
226
137
210
180
160
75
65
56
205
182
171
154
38
44
32
98
156
155
16
121
189
20
214
139
212
175
122
100
79
1
46
69
36
21
87
173
51
193
208
95
60
117
134
7
136
198
176
192
43
111
220
207
27
128
158
54
163
97
99
50
77
124
143
110
11
26
119
108
68
62
84
35
187
141
61
22
18
49
132
4
47
17
19
105
203
89
190
9
24
10
183
123
144
86
222
13
92
31
148
129
66
165
186
82
215
116
149
42
150
48
41
78
179
59
130
14
228
172
64
2
72
213
184
188
6
3
227
96
120
118
196
152

> <PUBCHEM_MMFF94_PARTIAL_CHARGES>
32
1 -0.68
10 0.27
11 0.28
12 0.28
13 0.08
14 0.09
15 -0.15
16 -0.15
17 0.4
18 -0.15
19 -0.15
2 -0.36
20 0.09
21 -0.15
22 -0.15
23 -0.15
24 -0.15
25 -0.15
3 -0.57
4 -0.81
41 0.4
42 0.15
43 0.15
44 0.15
45 0.15
46 0.15
47 0.15
48 0.15
49 0.15
5 0.27
50 0.15
6 0.27

> <PUBCHEM_EFFECTIVE_ROTOR_COUNT>
8.2

> <PUBCHEM_PHARMACOPHORE_FEATURES>
8
1 1 acceptor
1 1 donor
1 2 acceptor
1 3 acceptor
1 4 cation
6 13 14 15 16 18 19 rings
6 20 21 22 23 24 25 rings
6 4 5 6 7 8 9 rings

> <PUBCHEM_HEAVY_ATOM_COUNT>
25

> <PUBCHEM_ATOM_DEF_STEREO_COUNT>
0

> <PUBCHEM_ATOM_UDEF_STEREO_COUNT>
1

> <PUBCHEM_BOND_DEF_STEREO_COUNT>
0

> <PUBCHEM_BOND_UDEF_STEREO_COUNT>
0

> <PUBCHEM_ISOTOPIC_ATOM_COUNT>
0

> <PUBCHEM_COMPONENT_COUNT>
1

> <PUBCHEM_CACTVS_TAUTO_COUNT>
1

> <PUBCHEM_CONFORMER_ID>
00ABEEC900000005

> <PUBCHEM_MMFF94_ENERGY>
69.0405

> <PUBCHEM_FEATURE_SELFOVERLAP>
40.601

> <PUBCHEM_SHAPE_FINGERPRINT>
1100329 8 17981319307767871387
12035759 4 18129644362746785103
12156800 1 14715444287396728506
12422481 6 17977092471215978130
12553582 1 18259986007042312124
12592029 89 18266486272757114761
12633257 1 18271226293117402744
12788726 201 17693675009688518527
13122387 1 18408879646729314210
13140716 1 18410859824047101776
13965767 371 18196649601469428138
14081887 123 17911217736156608648
14178342 30 18340217293037596497
14363568 33 17910121205173228266
14468879 13 15123516903927663177
14725015 67 16098800966374961912
14840074 17 18041003968588071596
20739085 24 18188226315967231708
20905425 154 17688890634815843326
21796203 349 18041864843327668552
21857420 4 13702391755395830360
23728640 28 18197785603018141923
35225 105 17268958840380973451
445580 8 18336547110022212570
463206 1 16394640646249483806
484985 159 14206137006961194080
57091435 65 18120933906703458770
57527295 17 16759708150619874143
57527585 103 16881873676195059506
58807428 26 18341621399345061817
6287921 2 18199196087590256403
6438718 38 18129101306691676718
7064713 232 18343581824171961432

> <PUBCHEM_SHAPE_MULTIPOLES>
491.9
7.19
4.68
1.87
2.3
3.06
0.29
-3.42
-4.62
0.52
1.27
-0.09
-0.63
-1.34

> <PUBCHEM_SHAPE_SELFOVERLAP>
1043.254

> <PUBCHEM_SHAPE_VOLUME>
274.5

> <PUBCHEM_COORDINATE_TYPE>
2
5
10

$$$$