20646979
  -OEChem-03242010103D

 61 64  0     1  0  0  0  0  0999 V2000
    8.1238    2.3906   -0.7509 O   0  0  0  0  0  0  0  0  0  0  0  0
    9.4473   -0.0127   -0.3190 O   0  0  0  0  0  0  0  0  0  0  0  0
   -4.9571    1.8812   -0.9382 O   0  0  0  0  0  0  0  0  0  0  0  0
   -6.4262   -1.6425   -2.1661 O   0  5  0  0  0  0  0  0  0  0  0  0
   -6.2307   -2.3411   -0.0942 O   0  0  0  0  0  0  0  0  0  0  0  0
    3.1429   -0.9887    0.3500 N   0  0  1  0  0  0  0  0  0  0  0  0
   -4.6183    0.1198    0.5817 N   0  0  0  0  0  0  0  0  0  0  0  0
   -6.6619   -1.5237   -0.9409 N   0  3  0  0  0  0  0  0  0  0  0  0
    3.6979   -2.2377   -0.1857 C   0  0  0  0  0  0  0  0  0  0  0  0
    3.7760    0.1709   -0.3027 C   0  0  0  0  0  0  0  0  0  0  0  0
    5.1765   -2.3571    0.1976 C   0  0  0  0  0  0  0  0  0  0  0  0
    5.2865    0.1209   -0.2767 C   0  0  0  0  0  0  0  0  0  0  0  0
    5.9568   -1.0989   -0.0814 C   0  0  0  0  0  0  0  0  0  0  0  0
    1.6922   -0.9455    0.1691 C   0  0  0  0  0  0  0  0  0  0  0  0
    1.0399   -0.0161    1.1932 C   0  0  0  0  0  0  0  0  0  0  0  0
    6.0282    1.2863   -0.5127 C   0  0  0  0  0  0  0  0  0  0  0  0
    7.3573   -1.1289   -0.0875 C   0  0  0  0  0  0  0  0  0  0  0  0
    7.4222    1.2446   -0.5266 C   0  0  0  0  0  0  0  0  0  0  0  0
    8.0860    0.0388   -0.3120 C   0  0  0  0  0  0  0  0  0  0  0  0
   -0.4589    0.0202    1.0320 C   0  0  0  0  0  0  0  0  0  0  0  0
   -1.2575   -0.8868    1.7287 C   0  0  0  0  0  0  0  0  0  0  0  0
   -1.0466    0.9602    0.1853 C   0  0  0  0  0  0  0  0  0  0  0  0
   -2.6440   -0.8537    1.5787 C   0  0  0  0  0  0  0  0  0  0  0  0
   -2.4329    0.9933    0.0354 C   0  0  0  0  0  0  0  0  0  0  0  0
   -3.2316    0.0865    0.7321 C   0  0  0  0  0  0  0  0  0  0  0  0
    8.4766    3.1686    0.3911 C   0  0  0  0  0  0  0  0  0  0  0  0
   10.0490   -1.2856   -0.0913 C   0  0  0  0  0  0  0  0  0  0  0  0
   -5.3791    0.9841   -0.2165 C   0  0  0  0  0  0  0  0  0  0  0  0
   -6.8509    0.7891   -0.1434 C   0  0  0  0  0  0  0  0  0  0  0  0
   -7.4456   -0.4226   -0.4956 C   0  0  0  0  0  0  0  0  0  0  0  0
   -7.6411    1.8537    0.2901 C   0  0  0  0  0  0  0  0  0  0  0  0
   -8.8304   -0.5695   -0.4141 C   0  0  0  0  0  0  0  0  0  0  0  0
   -9.0259    1.7067    0.3715 C   0  0  0  0  0  0  0  0  0  0  0  0
   -9.6205    0.4951    0.0194 C   0  0  0  0  0  0  0  0  0  0  0  0
    3.5819   -2.2789   -1.2774 H   0  0  0  0  0  0  0  0  0  0  0  0
    3.1753   -3.1082    0.2296 H   0  0  0  0  0  0  0  0  0  0  0  0
    3.4662    0.2471   -1.3538 H   0  0  0  0  0  0  0  0  0  0  0  0
    3.4635    1.0879    0.2098 H   0  0  0  0  0  0  0  0  0  0  0  0
    5.6160   -3.1975   -0.3528 H   0  0  0  0  0  0  0  0  0  0  0  0
    5.2596   -2.5783    1.2694 H   0  0  0  0  0  0  0  0  0  0  0  0
    1.2685   -1.9465    0.3302 H   0  0  0  0  0  0  0  0  0  0  0  0
    1.4167   -0.6686   -0.8575 H   0  0  0  0  0  0  0  0  0  0  0  0
    1.4249    1.0071    1.1052 H   0  0  0  0  0  0  0  0  0  0  0  0
    1.2882   -0.3402    2.2128 H   0  0  0  0  0  0  0  0  0  0  0  0
    5.5156    2.2296   -0.6872 H   0  0  0  0  0  0  0  0  0  0  0  0
    7.8180   -2.0951    0.0907 H   0  0  0  0  0  0  0  0  0  0  0  0
   -0.8110   -1.6250    2.3895 H   0  0  0  0  0  0  0  0  0  0  0  0
   -0.4333    1.6699   -0.3639 H   0  0  0  0  0  0  0  0  0  0  0  0
   -3.2544   -1.5670    2.1268 H   0  0  0  0  0  0  0  0  0  0  0  0
   -2.8114    1.7492   -0.6381 H   0  0  0  0  0  0  0  0  0  0  0  0
    7.5780    3.5113    0.9139 H   0  0  0  0  0  0  0  0  0  0  0  0
    9.0376    4.0430    0.0500 H   0  0  0  0  0  0  0  0  0  0  0  0
    9.1097    2.5901    1.0713 H   0  0  0  0  0  0  0  0  0  0  0  0
    9.8181   -1.6682    0.9088 H   0  0  0  0  0  0  0  0  0  0  0  0
    9.7943   -2.0002   -0.8815 H   0  0  0  0  0  0  0  0  0  0  0  0
   11.1336   -1.1407   -0.1325 H   0  0  0  0  0  0  0  0  0  0  0  0
   -5.1291   -0.5629    1.1378 H   0  0  0  0  0  0  0  0  0  0  0  0
   -7.1911    2.8027    0.5700 H   0  0  0  0  0  0  0  0  0  0  0  0
   -9.3083   -1.5079   -0.6850 H   0  0  0  0  0  0  0  0  0  0  0  0
   -9.6411    2.5354    0.7097 H   0  0  0  0  0  0  0  0  0  0  0  0
  -10.6986    0.3807    0.0830 H   0  0  0  0  0  0  0  0  0  0  0  0
  1 18  1  0  0  0  0
  1 26  1  0  0  0  0
  2 19  1  0  0  0  0
  2 27  1  0  0  0  0
  3 28  2  0  0  0  0
  4  8  1  0  0  0  0
  5  8  2  0  0  0  0
  6  9  1  0  0  0  0
  6 10  1  0  0  0  0
  6 14  1  0  0  0  0
  7 25  1  0  0  0  0
  7 28  1  0  0  0  0
  7 57  1  0  0  0  0
  8 30  1  0  0  0  0
  9 11  1  0  0  0  0
  9 35  1  0  0  0  0
  9 36  1  0  0  0  0
 10 12  1  0  0  0  0
 10 37  1  0  0  0  0
 10 38  1  0  0  0  0
 11 13  1  0  0  0  0
 11 39  1  0  0  0  0
 11 40  1  0  0  0  0
 12 13  1  0  0  0  0
 12 16  2  0  0  0  0
 13 17  2  0  0  0  0
 14 15  1  0  0  0  0
 14 41  1  0  0  0  0
 14 42  1  0  0  0  0
 15 20  1  0  0  0  0
 15 43  1  0  0  0  0
 15 44  1  0  0  0  0
 16 18  1  0  0  0  0
 16 45  1  0  0  0  0
 17 19  1  0  0  0  0
 17 46  1  0  0  0  0
 18 19  2  0  0  0  0
 20 21  2  0  0  0  0
 20 22  1  0  0  0  0
 21 23  1  0  0  0  0
 21 47  1  0  0  0  0
 22 24  2  0  0  0  0
 22 48  1  0  0  0  0
 23 25  2  0  0  0  0
 23 49  1  0  0  0  0
 24 25  1  0  0  0  0
 24 50  1  0  0  0  0
 26 51  1  0  0  0  0
 26 52  1  0  0  0  0
 26 53  1  0  0  0  0
 27 54  1  0  0  0  0
 27 55  1  0  0  0  0
 27 56  1  0  0  0  0
 28 29  1  0  0  0  0
 29 30  1  0  0  0  0
 29 31  2  0  0  0  0
 30 32  2  0  0  0  0
 31 33  1  0  0  0  0
 31 58  1  0  0  0  0
 32 34  1  0  0  0  0
 32 59  1  0  0  0  0
 33 34  2  0  0  0  0
 33 60  1  0  0  0  0
 34 61  1  0  0  0  0
M  CHG  2   4  -1   8   1
M  END
> <PUBCHEM_COMPOUND_CID>
20646979

> <PUBCHEM_CONFORMER_RMSD>
1

> <PUBCHEM_CONFORMER_DIVERSEORDER>
5
106
11
92
68
46
111
64
91
63
110
36
101
79
22
103
21
27
33
40
37
2
43
87
114
69
90
115
17
112
54
89
53
86
93
95
105
44
10
94
45
28
67
83
85
116
72
108
3
50
57
12
76
102
122
109
18
25
104
34
121
80
1
47
29
75
26
52
4
96
13
65
124
55
118
14
71
23
8
125
73
78
48
51
117
97
99
56
39
82
6
107
49
19
30
74
88
35
84
32
7
81
24
16
59
15
123
60
120
42
61
20
58
62
113
77
66
31
9
100
119
41
38
98
70

> <PUBCHEM_MMFF94_PARTIAL_CHARGES>
45
1 -0.36
10 0.41
11 0.14
12 -0.14
13 -0.14
14 0.27
15 0.14
16 -0.15
17 -0.15
18 0.08
19 0.08
2 -0.36
20 -0.14
21 -0.15
22 -0.15
23 -0.15
24 -0.15
25 0.12
26 0.28
27 0.28
28 0.54
29 0.09
3 -0.57
30 0.13
31 -0.15
32 -0.15
33 -0.15
34 -0.15
4 -0.52
45 0.15
46 0.15
47 0.15
48 0.15
49 0.15
5 -0.52
50 0.15
57 0.37
58 0.15
59 0.15
6 -0.81
60 0.15
61 0.15
7 -0.55
8 0.91
9 0.27

> <PUBCHEM_EFFECTIVE_ROTOR_COUNT>
9.8

> <PUBCHEM_PHARMACOPHORE_FEATURES>
12
1 1 acceptor
1 2 acceptor
1 3 acceptor
1 4 acceptor
1 4 anion
1 5 acceptor
1 6 cation
1 7 donor
6 12 13 16 17 18 19 rings
6 20 21 22 23 24 25 rings
6 29 30 31 32 33 34 rings
6 6 9 10 11 12 13 rings

> <PUBCHEM_HEAVY_ATOM_COUNT>
34

> <PUBCHEM_ATOM_DEF_STEREO_COUNT>
0

> <PUBCHEM_ATOM_UDEF_STEREO_COUNT>
0

> <PUBCHEM_BOND_DEF_STEREO_COUNT>
0

> <PUBCHEM_BOND_UDEF_STEREO_COUNT>
0

> <PUBCHEM_ISOTOPIC_ATOM_COUNT>
0

> <PUBCHEM_COMPONENT_COUNT>
1

> <PUBCHEM_CACTVS_TAUTO_COUNT>
2

> <PUBCHEM_CONFORMER_ID>
013B0C4300000005

> <PUBCHEM_MMFF94_ENERGY>
125.8132

> <PUBCHEM_FEATURE_SELFOVERLAP>
61.006

> <PUBCHEM_SHAPE_FINGERPRINT>
10 15 12324243862746573779
10299344 5 18343581820435889983
10533779 1 17487607762797685784
10533779 47 9511184092141099165
10883706 142 15430039855463077515
11135609 127 18261397806217148356
11315181 36 18272091583525938673
11456790 92 12396295976427363870
11607047 141 14779537995448065736
12082328 90 18272088262941296693
12089408 11 18343019974225701801
12144603 126 18272371954036631899
12522641 33 18410576158421610671
12664476 115 18186238425563173732
13811026 1 18187369839611730376
14040221 8 17560804287007937457
14118638 360 15864344693107482596
14142895 15 18410294730963145420
14251764 46 17894915113472831187
14344974 52 18186802509224015129
14444916 359 12247687075354575452
15247644 1 15626225706363852044
15419008 145 11097842000161280367
15461852 350 18412830200392236870
15840311 113 18410014347831378948
15979999 66 18060136565479812289
1754911 235 18411138039059310268
20105231 36 14836403636005870397
20554085 129 16153423961398543608
21150785 3 18272370866855966179
21795232 338 18336834182623568891
22164985 6 18186516605266156054
232437 2 18410013217157597162
335507 130 18408042910006926765
395649 100 18259986015753819291
4625314 4 18413109463835550662
5028188 123 18342173368180255189
5265222 85 18341893000915190983
5470011 282 17917996070601380756
6081469 158 16950281781225051294
6201320 215 12540960894959501319
67123 10 18410012126547120849
9663363 56 15482666857943993050

> <PUBCHEM_SHAPE_MULTIPOLES>
655.41
38.81
2.35
1.09
3.05
0.58
0.06
8.66
-8.36
2.88
-0.21
-1.2
-0.27
-1.06

> <PUBCHEM_SHAPE_SELFOVERLAP>
1414.484

> <PUBCHEM_SHAPE_VOLUME>
359.7

> <PUBCHEM_COORDINATE_TYPE>
2
5
10

$$$$