44451564
  -OEChem-03242010103D

 53 56  0     1  0  0  0  0  0999 V2000
   -3.5410   -1.9257    0.6818 O   0  0  0  0  0  0  0  0  0  0  0  0
   -9.9949    0.4164    1.2890 O   0  5  0  0  0  0  0  0  0  0  0  0
   -9.6941    1.6046   -0.5323 O   0  0  0  0  0  0  0  0  0  0  0  0
    4.8930   -0.0414   -0.2354 N   0  0  2  0  0  0  0  0  0  0  0  0
   -2.9467    0.0298   -0.4810 N   0  0  0  0  0  0  0  0  0  0  0  0
   -9.2639    0.8305    0.3568 N   0  3  0  0  0  0  0  0  0  0  0  0
    5.3491   -1.3932    0.1108 C   0  0  0  0  0  0  0  0  0  0  0  0
    5.6175    0.9611    0.5655 C   0  0  0  0  0  0  0  0  0  0  0  0
    6.8124   -1.5718   -0.3059 C   0  0  0  0  0  0  0  0  0  0  0  0
    3.4509    0.0883   -0.0295 C   0  0  0  0  0  0  0  0  0  0  0  0
    7.1194    0.7975    0.5123 C   0  0  0  0  0  0  0  0  0  0  0  0
    7.6905   -0.4308    0.1377 C   0  0  0  0  0  0  0  0  0  0  0  0
    2.6738   -0.5242   -1.1952 C   0  0  0  0  0  0  0  0  0  0  0  0
    7.9517    1.8561    0.9008 C   0  0  0  0  0  0  0  0  0  0  0  0
    9.0844   -0.5708    0.1214 C   0  0  0  0  0  0  0  0  0  0  0  0
    1.1850   -0.3776   -1.0060 C   0  0  0  0  0  0  0  0  0  0  0  0
    9.3380    1.7039    0.8907 C   0  0  0  0  0  0  0  0  0  0  0  0
    9.9037    0.4925    0.4993 C   0  0  0  0  0  0  0  0  0  0  0  0
    0.4654   -1.3700   -0.3406 C   0  0  0  0  0  0  0  0  0  0  0  0
    0.5275    0.7506   -1.4963 C   0  0  0  0  0  0  0  0  0  0  0  0
   -0.9118   -1.2344   -0.1655 C   0  0  0  0  0  0  0  0  0  0  0  0
   -0.8497    0.8864   -1.3214 C   0  0  0  0  0  0  0  0  0  0  0  0
   -1.5693   -0.1061   -0.6560 C   0  0  0  0  0  0  0  0  0  0  0  0
   -3.8269   -0.8555    0.1556 C   0  0  0  0  0  0  0  0  0  0  0  0
   -5.2460   -0.4157    0.2078 C   0  0  0  0  0  0  0  0  0  0  0  0
   -6.0772   -0.8627    1.2349 C   0  0  0  0  0  0  0  0  0  0  0  0
   -5.7461    0.4444   -0.7698 C   0  0  0  0  0  0  0  0  0  0  0  0
   -7.4085   -0.4498    1.2843 C   0  0  0  0  0  0  0  0  0  0  0  0
   -7.0774    0.8575   -0.7204 C   0  0  0  0  0  0  0  0  0  0  0  0
   -7.9087    0.4103    0.3066 C   0  0  0  0  0  0  0  0  0  0  0  0
    5.2412   -1.5750    1.1891 H   0  0  0  0  0  0  0  0  0  0  0  0
    4.7667   -2.1658   -0.4019 H   0  0  0  0  0  0  0  0  0  0  0  0
    5.3674    1.9588    0.1832 H   0  0  0  0  0  0  0  0  0  0  0  0
    5.3097    0.9126    1.6187 H   0  0  0  0  0  0  0  0  0  0  0  0
    6.8750   -1.6446   -1.3993 H   0  0  0  0  0  0  0  0  0  0  0  0
    7.1867   -2.5130    0.1142 H   0  0  0  0  0  0  0  0  0  0  0  0
    3.1799    1.1522    0.0201 H   0  0  0  0  0  0  0  0  0  0  0  0
    3.1407   -0.3480    0.9296 H   0  0  0  0  0  0  0  0  0  0  0  0
    2.9027   -1.5889   -1.3208 H   0  0  0  0  0  0  0  0  0  0  0  0
    2.9681   -0.0458   -2.1390 H   0  0  0  0  0  0  0  0  0  0  0  0
    7.5229    2.8047    1.2138 H   0  0  0  0  0  0  0  0  0  0  0  0
    9.5380   -1.5096   -0.1861 H   0  0  0  0  0  0  0  0  0  0  0  0
    9.9767    2.5301    1.1889 H   0  0  0  0  0  0  0  0  0  0  0  0
   10.9835    0.3760    0.4881 H   0  0  0  0  0  0  0  0  0  0  0  0
    0.9683   -2.2521    0.0474 H   0  0  0  0  0  0  0  0  0  0  0  0
    1.0777    1.5313   -2.0148 H   0  0  0  0  0  0  0  0  0  0  0  0
   -1.3973   -2.0445    0.3600 H   0  0  0  0  0  0  0  0  0  0  0  0
   -1.3487    1.7711   -1.7088 H   0  0  0  0  0  0  0  0  0  0  0  0
   -3.3193    0.9066   -0.8334 H   0  0  0  0  0  0  0  0  0  0  0  0
   -5.7057   -1.5289    2.0092 H   0  0  0  0  0  0  0  0  0  0  0  0
   -5.1479    0.7874   -1.6086 H   0  0  0  0  0  0  0  0  0  0  0  0
   -8.0266   -0.8173    2.0996 H   0  0  0  0  0  0  0  0  0  0  0  0
   -7.4354    1.5213   -1.5033 H   0  0  0  0  0  0  0  0  0  0  0  0
  1 24  2  0  0  0  0
  2  6  1  0  0  0  0
  3  6  2  0  0  0  0
  4  7  1  0  0  0  0
  4  8  1  0  0  0  0
  4 10  1  0  0  0  0
  5 23  1  0  0  0  0
  5 24  1  0  0  0  0
  5 49  1  0  0  0  0
  6 30  1  0  0  0  0
  7  9  1  0  0  0  0
  7 31  1  0  0  0  0
  7 32  1  0  0  0  0
  8 11  1  0  0  0  0
  8 33  1  0  0  0  0
  8 34  1  0  0  0  0
  9 12  1  0  0  0  0
  9 35  1  0  0  0  0
  9 36  1  0  0  0  0
 10 13  1  0  0  0  0
 10 37  1  0  0  0  0
 10 38  1  0  0  0  0
 11 12  1  0  0  0  0
 11 14  2  0  0  0  0
 12 15  2  0  0  0  0
 13 16  1  0  0  0  0
 13 39  1  0  0  0  0
 13 40  1  0  0  0  0
 14 17  1  0  0  0  0
 14 41  1  0  0  0  0
 15 18  1  0  0  0  0
 15 42  1  0  0  0  0
 16 19  2  0  0  0  0
 16 20  1  0  0  0  0
 17 18  2  0  0  0  0
 17 43  1  0  0  0  0
 18 44  1  0  0  0  0
 19 21  1  0  0  0  0
 19 45  1  0  0  0  0
 20 22  2  0  0  0  0
 20 46  1  0  0  0  0
 21 23  2  0  0  0  0
 21 47  1  0  0  0  0
 22 23  1  0  0  0  0
 22 48  1  0  0  0  0
 24 25  1  0  0  0  0
 25 26  2  0  0  0  0
 25 27  1  0  0  0  0
 26 28  1  0  0  0  0
 26 50  1  0  0  0  0
 27 29  2  0  0  0  0
 27 51  1  0  0  0  0
 28 30  2  0  0  0  0
 28 52  1  0  0  0  0
 29 30  1  0  0  0  0
 29 53  1  0  0  0  0
M  CHG  2   2  -1   6   1
M  END
> <PUBCHEM_COMPOUND_CID>
44451564

> <PUBCHEM_CONFORMER_RMSD>
1

> <PUBCHEM_CONFORMER_DIVERSEORDER>
1
8
22
31
3
17
9
19
6
12
21
23
4
15
18
7
24
2
13
26
16
30
29
5
10
27
11
20
25
14
28

> <PUBCHEM_MMFF94_PARTIAL_CHARGES>
43
1 -0.57
10 0.27
11 -0.14
12 -0.14
13 0.14
14 -0.15
15 -0.15
16 -0.14
17 -0.15
18 -0.15
19 -0.15
2 -0.52
20 -0.15
21 -0.15
22 -0.15
23 0.12
24 0.54
25 0.09
26 -0.15
27 -0.15
28 -0.15
29 -0.15
3 -0.52
30 0.13
4 -0.81
41 0.15
42 0.15
43 0.15
44 0.15
45 0.15
46 0.15
47 0.15
48 0.15
49 0.37
5 -0.55
50 0.15
51 0.15
52 0.15
53 0.15
6 0.91
7 0.27
8 0.41
9 0.14

> <PUBCHEM_EFFECTIVE_ROTOR_COUNT>
7.8

> <PUBCHEM_PHARMACOPHORE_FEATURES>
10
1 1 acceptor
1 2 acceptor
1 2 anion
1 3 acceptor
1 4 cation
1 5 donor
6 11 12 14 15 17 18 rings
6 16 19 20 21 22 23 rings
6 25 26 27 28 29 30 rings
6 4 7 8 9 11 12 rings

> <PUBCHEM_HEAVY_ATOM_COUNT>
30

> <PUBCHEM_ATOM_DEF_STEREO_COUNT>
0

> <PUBCHEM_ATOM_UDEF_STEREO_COUNT>
0

> <PUBCHEM_BOND_DEF_STEREO_COUNT>
0

> <PUBCHEM_BOND_UDEF_STEREO_COUNT>
0

> <PUBCHEM_ISOTOPIC_ATOM_COUNT>
0

> <PUBCHEM_COMPONENT_COUNT>
1

> <PUBCHEM_CACTVS_TAUTO_COUNT>
2

> <PUBCHEM_CONFORMER_ID>
02A646EC00000001

> <PUBCHEM_MMFF94_ENERGY>
90.7225

> <PUBCHEM_FEATURE_SELFOVERLAP>
50.85

> <PUBCHEM_SHAPE_FINGERPRINT>
10 15 18413388734987220614
10066227 49 7781531321453814264
10076449 9 10881398729343511815
10299344 5 13984663654697835779
10533779 47 18334582304767411634
10625338 86 18273210876549779265
106641 1 18259704510189389756
10670039 82 11743852351784290138
10674148 151 16732703861346805089
11061554 47 18339924798151270037
11135609 127 13182727196814298082
11135926 11 17313094272297580787
11315181 36 16988846090849658751
11973863 73 15140947440108578689
12082328 90 10809611623729759362
12089408 11 17489864942695662974
12498461 61 16732990864716306595
12522641 33 17060623282887907502
12539745 222 14562804444427422367
12758862 56 16878230843874937073
12838862 33 17967242101467516519
13553643 46 18343019990763156112
14117953 113 13182741468404942928
14118638 360 13398643722712182758
14150022 121 18341050722825667897
14251764 46 18410573980856490343
14294032 229 14979688658395700346
14344974 52 12391502101525119274
14617042 71 18271242850744420712
15183329 4 10807944769261805078
15247644 1 13551192190991292321
15301273 46 18260828185619710262
15461852 350 15482665814593968429
15510794 2 18407479963726454602
155225 1 17275386507936932865
1754911 235 12247679361951189145
1818759 1 14057000516384212200
18603816 31 14707216560566468193
19315958 150 18342461426250606766
19841028 212 16733537218457290178
2026 5 12180105567974246952
21150785 3 10015863176100487455
21344244 246 7925370540664414992
21362267 2 18059559317912734272
21362267 313 18058733472693866074
21792934 111 18187082858350141044
22224240 67 18341894099572302742
232437 2 11891334249006659513
23576562 1 14476378508998016185
246663 6 12468356851704260707
24771293 8 15841282484460499993
3092352 35 16702299053060077638
335352 9 13183019636130312690
5219985 9 14923943457527470014
54039377 194 11746937594755095667
59521099 67 11025806401231747678
59682541 35 18040435503585015938
6126387 218 18333732403864291633
636775 72 18271247124041721017
636775 8 13398620681389189173
6691757 9 16271931554044966951
67123 10 18202562886783630615
9953998 17 18336263526169463303

> <PUBCHEM_SHAPE_MULTIPOLES>
584.83
38.85
1.53
1.16
6.64
0.01
0.07
13.83
-13.31
-1.5
-0.16
1.03
0.12
1.91

> <PUBCHEM_SHAPE_SELFOVERLAP>
1269.65

> <PUBCHEM_SHAPE_VOLUME>
318.4

> <PUBCHEM_COORDINATE_TYPE>
2
5
10

$$$$