
 OpenBabel03292020543D

194194  0  0  1  0  0  0  0  0999 V2000
    3.1728   -1.5008   -2.7195 C   0  0  0  0  0  0  0  0  0  0  0  0
    4.5762   -2.0820   -2.9625 C   0  0  0  0  0  0  0  0  0  0  0  0
    5.5444   -1.4787   -3.7080 C   0  0  0  0  0  0  0  0  0  0  0  0
    7.0481   -1.7546   -4.1938 C   0  0  0  0  0  0  0  0  0  0  0  0
    7.9893   -3.1138   -4.0975 C   0  0  1  0  0  0  0  0  0  0  0  0
    7.0067   -4.2383   -4.4750 C   0  0  0  0  0  0  0  0  0  0  0  0
    9.5042   -3.2875   -5.0611 C   0  0  1  0  0  0  0  0  0  0  0  0
    9.6302   -2.1294   -5.8708 O   0  0  0  0  0  0  0  0  0  0  0  0
   11.1252   -4.0205   -4.5874 C   0  0  1  0  0  0  0  0  0  0  0  0
   12.8461   -3.7516   -5.3476 C   0  0  0  0  0  0  0  0  0  0  0  0
   12.9308   -3.0741   -6.3608 O   0  0  0  0  0  0  0  0  0  0  0  0
   14.1224   -4.4431   -4.8794 N   0  0  0  0  0  0  0  0  0  0  0  0
   15.8462   -4.3603   -5.3300 C   0  0  1  0  0  0  0  0  0  0  0  0
   16.4358   -5.7877   -5.5218 C   0  0  0  0  0  0  0  0  0  0  0  0
   16.7175   -6.2113   -6.9641 C   0  0  0  0  0  0  0  0  0  0  0  0
   17.2277   -3.4138   -4.7297 C   0  0  0  0  0  0  0  0  0  0  0  0
   17.0570   -2.1760   -4.7199 O   0  0  0  0  0  0  0  0  0  0  0  0
   18.5666   -3.7350   -4.3488 N   0  0  0  0  0  0  0  0  0  0  0  0
   19.6876   -4.8546   -4.1611 C   0  0  0  0  0  0  0  0  0  0  0  0
   20.7228   -5.1673   -2.8969 C   0  0  0  0  0  0  0  0  0  0  0  0
   20.2594   -5.9487   -2.0307 O   0  0  0  0  0  0  0  0  0  0  0  0
   22.0808   -4.6946   -2.7054 N   0  0  0  0  0  0  0  0  0  0  0  0
   22.7661   -3.8273   -3.6516 C   0  0  0  0  0  0  0  0  0  0  0  0
   22.8551   -5.0390   -1.4123 C   0  0  2  0  0  0  0  0  0  0  0  0
   23.0012   -3.7915   -0.4826 C   0  0  0  0  0  0  0  0  0  0  0  0
   21.6550   -3.2384   -0.0042 C   0  0  0  0  0  0  0  0  0  0  0  0
   20.9128   -4.2589    0.8481 C   0  0  0  0  0  0  0  0  0  0  0  0
   21.8196   -1.9533    0.8086 C   0  0  0  0  0  0  0  0  0  0  0  0
   24.3058   -5.6677   -1.4688 C   0  0  0  0  0  0  0  0  0  0  0  0
   25.2136   -5.1143   -2.1041 O   0  0  0  0  0  0  0  0  0  0  0  0
   24.6838   -6.7758   -0.7360 N   0  0  0  0  0  0  0  0  0  0  0  0
   23.9153   -7.8686   -0.0566 C   0  0  2  0  0  0  0  0  0  0  0  0
   22.8578   -8.4601   -1.0147 C   0  0  0  0  0  0  0  0  0  0  0  0
   21.9646   -9.5238   -0.3859 C   0  0  0  0  0  0  0  0  0  0  0  0
   23.5156   -9.0118   -2.2875 C   0  0  0  0  0  0  0  0  0  0  0  0
   23.3670   -7.3339    1.2914 C   0  0  0  0  0  0  0  0  0  0  0  0
   22.9235   -6.1838    1.2996 O   0  0  0  0  0  0  0  0  0  0  0  0
   23.3552   -8.0651    2.4715 N   0  0  0  0  0  0  0  0  0  0  0  0
   23.7314   -9.4676    2.6109 C   0  0  0  0  0  0  0  0  0  0  0  0
   22.8342   -7.3662    3.6905 C   0  0  2  0  0  0  0  0  0  0  0  0
   23.9429   -6.9167    4.6713 C   0  0  0  0  0  0  0  0  0  0  0  0
   24.9180   -5.8523    4.1191 C   0  0  0  0  0  0  0  0  0  0  0  0
   24.2551   -4.5374    3.6919 C   0  0  0  0  0  0  0  0  0  0  0  0
   25.9742   -5.5166    5.1774 C   0  0  0  0  0  0  0  0  0  0  0  0
   21.7479   -8.1480    4.4685 C   0  0  0  0  0  0  0  0  0  0  0  0
   21.9893   -9.2175    5.0348 O   0  0  0  0  0  0  0  0  0  0  0  0
   20.4635   -7.6737    4.5132 N   0  0  0  0  0  0  0  0  0  0  0  0
   19.8873   -6.4731    3.8787 C   0  0  1  0  0  0  0  0  0  0  0  0
   18.5001   -6.8035    3.3826 C   0  0  0  0  0  0  0  0  0  0  0  0
   20.1474   -5.2272    4.7776 C   0  0  0  0  0  0  0  0  0  0  0  0
   21.2829   -5.0604    5.2524 O   0  0  0  0  0  0  0  0  0  0  0  0
   19.3026   -4.1889    5.0135 N   0  0  0  0  0  0  0  0  0  0  0  0
   17.8763   -4.1681    5.3997 C   0  0  2  0  0  0  0  0  0  0  0  0
   17.4948   -5.2753    6.3965 C   0  0  0  0  0  0  0  0  0  0  0  0
   18.1824   -5.0831    7.6397 O   0  0  0  0  0  0  0  0  0  0  0  0
   16.9012   -3.9883    4.2063 C   0  0  0  0  0  0  0  0  0  0  0  0
   16.2015   -4.9422    3.8297 O   0  0  0  0  0  0  0  0  0  0  0  0
   16.9246   -2.7711    3.5298 N   0  0  0  0  0  0  0  0  0  0  0  0
   16.8257   -1.5143    4.2713 C   0  0  0  0  0  0  0  0  0  0  0  0
   16.5106   -2.6590    2.0928 C   0  0  1  0  0  0  0  0  0  0  0  0
   17.4078   -3.4595    1.1634 C   0  0  0  0  0  0  0  0  0  0  0  0
   17.0762   -3.4337   -0.3364 C   0  0  0  0  0  0  0  0  0  0  0  0
   17.5623   -2.1456   -0.9967 C   0  0  0  0  0  0  0  0  0  0  0  0
   17.7075   -4.6402   -1.0232 C   0  0  0  0  0  0  0  0  0  0  0  0
   15.0029   -2.6012    1.7877 C   0  0  0  0  0  0  0  0  0  0  0  0
   14.5102   -1.4667    1.6768 O   0  0  0  0  0  0  0  0  0  0  0  0
   14.2006   -3.7307    1.7420 N   0  0  0  0  0  0  0  0  0  0  0  0
   14.6594   -5.0508    1.2911 C   0  0  0  0  0  0  0  0  0  0  0  0
   12.7339   -3.5078    1.6483 C   0  0  1  0  0  0  0  0  0  0  0  0
   12.1800   -2.6142    2.7646 C   0  0  0  0  0  0  0  0  0  0  0  0
   12.6796   -2.8987    4.1959 C   0  0  0  0  0  0  0  0  0  0  0  0
   12.1092   -1.8266    5.1294 C   0  0  0  0  0  0  0  0  0  0  0  0
   12.3158   -4.2947    4.6864 C   0  0  0  0  0  0  0  0  0  0  0  0
   12.3535   -3.2972    0.1447 C   0  0  0  0  0  0  0  0  0  0  0  0
   12.6700   -4.2301   -0.6207 O   0  0  0  0  0  0  0  0  0  0  0  0
   11.7417   -2.1831   -0.4124 N   0  0  0  0  0  0  0  0  0  0  0  0
   11.0409   -1.1001    0.2579 C   0  0  0  0  0  0  0  0  0  0  0  0
   11.4822   -2.2403   -1.8785 C   0  0  1  0  0  0  0  0  0  0  0  0
   12.6943   -2.0115   -2.7909 C   0  0  0  0  0  0  0  0  0  0  0  0
   12.4600   -0.8532   -3.7750 C   0  0  0  0  0  0  0  0  0  0  0  0
   14.1068   -2.0302   -2.2233 C   0  0  0  0  0  0  0  0  0  0  0  0
   10.6148   -3.5141   -2.1355 C   0  0  0  0  0  0  0  0  0  0  0  0
    9.6782   -3.7296   -1.3453 O   0  0  0  0  0  0  0  0  0  0  0  0
   10.9147   -4.4350   -3.1553 N   0  0  0  0  0  0  0  0  0  0  0  0
   10.2618   -5.7329   -2.9870 C   0  0  0  0  0  0  0  0  0  0  0  0
    2.6345   -2.0583   -1.9381 H   0  0  0  0  0  0  0  0  0  0  0  0
    2.5379   -1.5542   -3.6147 H   0  0  0  0  0  0  0  0  0  0  0  0
    3.1900   -0.4558   -2.3820 H   0  0  0  0  0  0  0  0  0  0  0  0
    4.7522   -3.0375   -2.4770 H   0  0  0  0  0  0  0  0  0  0  0  0
    5.1989   -0.5192   -4.1116 H   0  0  0  0  0  0  0  0  0  0  0  0
    7.6171   -0.9406   -3.7274 H   0  0  0  0  0  0  0  0  0  0  0  0
    6.9794   -1.5184   -5.2633 H   0  0  0  0  0  0  0  0  0  0  0  0
    8.2308   -3.2225   -3.0438 H   0  0  0  0  0  0  0  0  0  0  0  0
    6.6738   -4.1245   -5.5126 H   0  0  0  0  0  0  0  0  0  0  0  0
    6.1037   -4.2065   -3.8520 H   0  0  0  0  0  0  0  0  0  0  0  0
    7.4369   -5.2268   -4.3389 H   0  0  0  0  0  0  0  0  0  0  0  0
    9.1783   -4.0819   -5.7497 H   0  0  0  0  0  0  0  0  0  0  0  0
    8.8418   -2.1172   -6.4486 H   0  0  0  0  0  0  0  0  0  0  0  0
   11.0046   -4.9813   -5.1205 H   0  0  0  0  0  0  0  0  0  0  0  0
   13.9093   -5.4079   -4.6714 H   0  0  0  0  0  0  0  0  0  0  0  0
   15.7341   -3.9101   -6.3295 H   0  0  0  0  0  0  0  0  0  0  0  0
   15.8513   -6.5397   -4.9928 H   0  0  0  0  0  0  0  0  0  0  0  0
   17.4184   -5.8354   -5.0626 H   0  0  0  0  0  0  0  0  0  0  0  0
   15.8605   -6.0514   -7.6195 H   0  0  0  0  0  0  0  0  0  0  0  0
   16.9779   -7.2775   -6.9874 H   0  0  0  0  0  0  0  0  0  0  0  0
   17.5833   -5.6783   -7.3813 H   0  0  0  0  0  0  0  0  0  0  0  0
   19.0306   -2.8380   -4.2343 H   0  0  0  0  0  0  0  0  0  0  0  0
   20.3004   -4.8355   -5.0694 H   0  0  0  0  0  0  0  0  0  0  0  0
   19.1334   -5.7968   -4.1987 H   0  0  0  0  0  0  0  0  0  0  0  0
   22.2136   -3.7458   -4.5828 H   0  0  0  0  0  0  0  0  0  0  0  0
   23.7590   -4.2392   -3.8604 H   0  0  0  0  0  0  0  0  0  0  0  0
   22.8773   -2.8384   -3.1992 H   0  0  0  0  0  0  0  0  0  0  0  0
   22.2549   -5.7701   -0.8921 H   0  0  0  0  0  0  0  0  0  0  0  0
   23.6192   -4.0345    0.3936 H   0  0  0  0  0  0  0  0  0  0  0  0
   23.5636   -3.0060   -1.0029 H   0  0  0  0  0  0  0  0  0  0  0  0
   21.0522   -2.9944   -0.8852 H   0  0  0  0  0  0  0  0  0  0  0  0
   21.3667   -4.3740    1.8343 H   0  0  0  0  0  0  0  0  0  0  0  0
   20.8138   -5.2396    0.3841 H   0  0  0  0  0  0  0  0  0  0  0  0
   19.9054   -3.9294    1.0115 H   0  0  0  0  0  0  0  0  0  0  0  0
   22.3125   -2.1443    1.7685 H   0  0  0  0  0  0  0  0  0  0  0  0
   20.8361   -1.5180    1.0216 H   0  0  0  0  0  0  0  0  0  0  0  0
   22.4059   -1.2063    0.2655 H   0  0  0  0  0  0  0  0  0  0  0  0
   25.6805   -6.9413   -0.8113 H   0  0  0  0  0  0  0  0  0  0  0  0
   24.6748   -8.6286    0.1598 H   0  0  0  0  0  0  0  0  0  0  0  0
   22.1810   -7.6713   -1.3401 H   0  0  0  0  0  0  0  0  0  0  0  0
   22.5366  -10.4027   -0.0767 H   0  0  0  0  0  0  0  0  0  0  0  0
   21.2082   -9.8496   -1.1096 H   0  0  0  0  0  0  0  0  0  0  0  0
   21.4254   -9.1276    0.4799 H   0  0  0  0  0  0  0  0  0  0  0  0
   24.1393   -9.8839   -2.0677 H   0  0  0  0  0  0  0  0  0  0  0  0
   24.1455   -8.2624   -2.7780 H   0  0  0  0  0  0  0  0  0  0  0  0
   22.7526   -9.3075   -3.0151 H   0  0  0  0  0  0  0  0  0  0  0  0
   24.3088   -9.8284    1.7610 H   0  0  0  0  0  0  0  0  0  0  0  0
   22.8204  -10.0691    2.6820 H   0  0  0  0  0  0  0  0  0  0  0  0
   24.3290   -9.6031    3.5166 H   0  0  0  0  0  0  0  0  0  0  0  0
   22.3612   -6.4482    3.3687 H   0  0  0  0  0  0  0  0  0  0  0  0
   23.4729   -6.5217    5.5829 H   0  0  0  0  0  0  0  0  0  0  0  0
   24.5170   -7.7936    4.9966 H   0  0  0  0  0  0  0  0  0  0  0  0
   25.4310   -6.2813    3.2500 H   0  0  0  0  0  0  0  0  0  0  0  0
   23.9097   -3.9595    4.5549 H   0  0  0  0  0  0  0  0  0  0  0  0
   23.3975   -4.6757    3.0380 H   0  0  0  0  0  0  0  0  0  0  0  0
   24.9722   -3.9199    3.1391 H   0  0  0  0  0  0  0  0  0  0  0  0
   25.5234   -4.9971    6.0315 H   0  0  0  0  0  0  0  0  0  0  0  0
   26.7426   -4.8595    4.7562 H   0  0  0  0  0  0  0  0  0  0  0  0
   26.4666   -6.4185    5.5516 H   0  0  0  0  0  0  0  0  0  0  0  0
   19.8756   -8.2050    5.1436 H   0  0  0  0  0  0  0  0  0  0  0  0
   20.4590   -6.2790    2.9669 H   0  0  0  0  0  0  0  0  0  0  0  0
   17.7906   -7.0061    4.1823 H   0  0  0  0  0  0  0  0  0  0  0  0
   18.5231   -7.7041    2.7572 H   0  0  0  0  0  0  0  0  0  0  0  0
   18.1255   -5.9997    2.7559 H   0  0  0  0  0  0  0  0  0  0  0  0
   19.8371   -3.5299    5.5695 H   0  0  0  0  0  0  0  0  0  0  0  0
   17.7952   -3.2548    5.9931 H   0  0  0  0  0  0  0  0  0  0  0  0
   16.4202   -5.2795    6.6026 H   0  0  0  0  0  0  0  0  0  0  0  0
   17.7741   -6.2700    6.0546 H   0  0  0  0  0  0  0  0  0  0  0  0
   17.7390   -4.3711    8.1315 H   0  0  0  0  0  0  0  0  0  0  0  0
   17.3317   -1.5450    5.2323 H   0  0  0  0  0  0  0  0  0  0  0  0
   15.7635   -1.3084    4.4548 H   0  0  0  0  0  0  0  0  0  0  0  0
   17.2702   -0.6989    3.6929 H   0  0  0  0  0  0  0  0  0  0  0  0
   16.8131   -1.6280    1.8392 H   0  0  0  0  0  0  0  0  0  0  0  0
   17.5101   -4.4859    1.5084 H   0  0  0  0  0  0  0  0  0  0  0  0
   18.3884   -3.0036    1.3023 H   0  0  0  0  0  0  0  0  0  0  0  0
   16.0008   -3.5075   -0.4927 H   0  0  0  0  0  0  0  0  0  0  0  0
   18.6449   -2.0197   -0.8849 H   0  0  0  0  0  0  0  0  0  0  0  0
   17.0681   -1.2732   -0.5615 H   0  0  0  0  0  0  0  0  0  0  0  0
   17.3393   -2.1547   -2.0663 H   0  0  0  0  0  0  0  0  0  0  0  0
   18.7901   -4.5363   -1.0096 H   0  0  0  0  0  0  0  0  0  0  0  0
   17.3808   -4.7238   -2.0628 H   0  0  0  0  0  0  0  0  0  0  0  0
   17.4493   -5.5810   -0.5254 H   0  0  0  0  0  0  0  0  0  0  0  0
   15.6682   -5.2742    1.6053 H   0  0  0  0  0  0  0  0  0  0  0  0
   14.6376   -5.1129    0.1985 H   0  0  0  0  0  0  0  0  0  0  0  0
   14.0052   -5.8304    1.6902 H   0  0  0  0  0  0  0  0  0  0  0  0
   12.2813   -4.4883    1.8644 H   0  0  0  0  0  0  0  0  0  0  0  0
   11.0844   -2.6762    2.7474 H   0  0  0  0  0  0  0  0  0  0  0  0
   12.4459   -1.5735    2.5759 H   0  0  0  0  0  0  0  0  0  0  0  0
   13.7701   -2.8029    4.2311 H   0  0  0  0  0  0  0  0  0  0  0  0
   11.0158   -1.8732    5.1634 H   0  0  0  0  0  0  0  0  0  0  0  0
   12.3920   -0.8250    4.7833 H   0  0  0  0  0  0  0  0  0  0  0  0
   12.4944   -1.9451    6.1459 H   0  0  0  0  0  0  0  0  0  0  0  0
   11.2423   -4.4831    4.5891 H   0  0  0  0  0  0  0  0  0  0  0  0
   12.5905   -4.4166    5.7395 H   0  0  0  0  0  0  0  0  0  0  0  0
   12.8518   -5.0621    4.1195 H   0  0  0  0  0  0  0  0  0  0  0  0
   11.1859   -1.0353    1.3211 H   0  0  0  0  0  0  0  0  0  0  0  0
    9.9657   -1.2309    0.0934 H   0  0  0  0  0  0  0  0  0  0  0  0
   11.3583   -0.1507   -0.1836 H   0  0  0  0  0  0  0  0  0  0  0  0
   10.7631   -1.4328   -2.0792 H   0  0  0  0  0  0  0  0  0  0  0  0
   12.7326   -2.8955   -3.3865 H   0  0  0  0  0  0  0  0  0  0  0  0
   13.1196   -0.0058   -3.5789 H   0  0  0  0  0  0  0  0  0  0  0  0
   11.4259   -0.4934   -3.7761 H   0  0  0  0  0  0  0  0  0  0  0  0
   12.6533   -1.1758   -4.8016 H   0  0  0  0  0  0  0  0  0  0  0  0
   14.8154   -1.5902   -2.9335 H   0  0  0  0  0  0  0  0  0  0  0  0
   14.4305   -3.0710   -2.0929 H   0  0  0  0  0  0  0  0  0  0  0  0
   14.1992   -1.5137   -1.2691 H   0  0  0  0  0  0  0  0  0  0  0  0
   11.0164   -6.5133   -3.0910 H   0  0  0  0  0  0  0  0  0  0  0  0
    9.4921   -5.8660   -3.7521 H   0  0  0  0  0  0  0  0  0  0  0  0
    9.7767   -5.8521   -2.0128 H   0  0  0  0  0  0  0  0  0  0  0  0
  1  2  1  0  0  0  0
  1 86  1  0  0  0  0
  1 87  1  0  0  0  0
  1 88  1  0  0  0  0
  2  3  2  0  0  0  0
  2 89  1  0  0  0  0
  3  4  1  0  0  0  0
  3 90  1  0  0  0  0
  4  5  1  0  0  0  0
  4 91  1  0  0  0  0
  4 92  1  0  0  0  0
  5  6  1  0  0  0  0
  5  7  1  0  0  0  0
  5 93  1  1  0  0  0
  6 94  1  0  0  0  0
  6 95  1  0  0  0  0
  6 96  1  0  0  0  0
  7  8  1  0  0  0  0
  7  9  1  0  0  0  0
  7 97  1  6  0  0  0
  8 98  1  0  0  0  0
  9 10  1  0  0  0  0
  9 84  1  0  0  0  0
  9 99  1  6  0  0  0
 10 11  2  0  0  0  0
 10 12  1  0  0  0  0
 12 13  1  0  0  0  0
 12100  1  0  0  0  0
 13 14  1  0  0  0  0
 13 16  1  0  0  0  0
 13101  1  1  0  0  0
 14 15  1  0  0  0  0
 14102  1  0  0  0  0
 14103  1  0  0  0  0
 15104  1  0  0  0  0
 15105  1  0  0  0  0
 15106  1  0  0  0  0
 16 17  2  0  0  0  0
 16 18  1  0  0  0  0
 18 19  1  0  0  0  0
 18107  1  0  0  0  0
 19 20  1  0  0  0  0
 19108  1  0  0  0  0
 19109  1  0  0  0  0
 20 21  2  0  0  0  0
 20 22  1  0  0  0  0
 22 23  1  0  0  0  0
 22 24  1  0  0  0  0
 23110  1  0  0  0  0
 23111  1  0  0  0  0
 23112  1  0  0  0  0
 24 29  1  0  0  0  0
 24 25  1  0  0  0  0
 24113  1  1  0  0  0
 25 26  1  0  0  0  0
 25114  1  0  0  0  0
 25115  1  0  0  0  0
 26 27  1  0  0  0  0
 26 28  1  0  0  0  0
 26116  1  0  0  0  0
 27117  1  0  0  0  0
 27118  1  0  0  0  0
 27119  1  0  0  0  0
 28120  1  0  0  0  0
 28121  1  0  0  0  0
 28122  1  0  0  0  0
 29 30  2  0  0  0  0
 29 31  1  0  0  0  0
 31 32  1  0  0  0  0
 31123  1  0  0  0  0
 32 36  1  0  0  0  0
 32 33  1  0  0  0  0
 32124  1  1  0  0  0
 33 34  1  0  0  0  0
 33 35  1  0  0  0  0
 33125  1  0  0  0  0
 34126  1  0  0  0  0
 34127  1  0  0  0  0
 34128  1  0  0  0  0
 35129  1  0  0  0  0
 35130  1  0  0  0  0
 35131  1  0  0  0  0
 36 37  2  0  0  0  0
 36 38  1  0  0  0  0
 38 39  1  0  0  0  0
 38 40  1  0  0  0  0
 39132  1  0  0  0  0
 39133  1  0  0  0  0
 39134  1  0  0  0  0
 40 45  1  0  0  0  0
 40 41  1  0  0  0  0
 40135  1  6  0  0  0
 41 42  1  0  0  0  0
 41136  1  0  0  0  0
 41137  1  0  0  0  0
 42 43  1  0  0  0  0
 42 44  1  0  0  0  0
 42138  1  0  0  0  0
 43139  1  0  0  0  0
 43140  1  0  0  0  0
 43141  1  0  0  0  0
 44142  1  0  0  0  0
 44143  1  0  0  0  0
 44144  1  0  0  0  0
 45 46  2  0  0  0  0
 45 47  1  0  0  0  0
 47 48  1  0  0  0  0
 47145  1  0  0  0  0
 48 49  1  0  0  0  0
 48 50  1  0  0  0  0
 48146  1  6  0  0  0
 49147  1  0  0  0  0
 49148  1  0  0  0  0
 49149  1  0  0  0  0
 50 51  2  0  0  0  0
 50 52  1  0  0  0  0
 52 53  1  0  0  0  0
 52150  1  0  0  0  0
 53 56  1  0  0  0  0
 53 54  1  0  0  0  0
 53151  1  1  0  0  0
 54 55  1  0  0  0  0
 54152  1  0  0  0  0
 54153  1  0  0  0  0
 55154  1  0  0  0  0
 56 57  2  0  0  0  0
 56 58  1  0  0  0  0
 58 59  1  0  0  0  0
 58 60  1  0  0  0  0
 59155  1  0  0  0  0
 59156  1  0  0  0  0
 59157  1  0  0  0  0
 60 61  1  0  0  0  0
 60 65  1  0  0  0  0
 60158  1  6  0  0  0
 61 62  1  0  0  0  0
 61159  1  0  0  0  0
 61160  1  0  0  0  0
 62 63  1  0  0  0  0
 62 64  1  0  0  0  0
 62161  1  0  0  0  0
 63162  1  0  0  0  0
 63163  1  0  0  0  0
 63164  1  0  0  0  0
 64165  1  0  0  0  0
 64166  1  0  0  0  0
 64167  1  0  0  0  0
 65 66  2  0  0  0  0
 65 67  1  0  0  0  0
 67 68  1  0  0  0  0
 67 69  1  0  0  0  0
 68168  1  0  0  0  0
 68169  1  0  0  0  0
 68170  1  0  0  0  0
 69 70  1  0  0  0  0
 69 74  1  0  0  0  0
 69171  1  1  0  0  0
 70 71  1  0  0  0  0
 70172  1  0  0  0  0
 70173  1  0  0  0  0
 71 72  1  0  0  0  0
 71 73  1  0  0  0  0
 71174  1  0  0  0  0
 72175  1  0  0  0  0
 72176  1  0  0  0  0
 72177  1  0  0  0  0
 73178  1  0  0  0  0
 73179  1  0  0  0  0
 73180  1  0  0  0  0
 74 75  2  0  0  0  0
 74 76  1  0  0  0  0
 76 77  1  0  0  0  0
 76 78  1  0  0  0  0
 77181  1  0  0  0  0
 77182  1  0  0  0  0
 77183  1  0  0  0  0
 78 79  1  0  0  0  0
 78 82  1  0  0  0  0
 78184  1  6  0  0  0
 79 80  1  0  0  0  0
 79 81  1  0  0  0  0
 79185  1  0  0  0  0
 80186  1  0  0  0  0
 80187  1  0  0  0  0
 80188  1  0  0  0  0
 81189  1  0  0  0  0
 81190  1  0  0  0  0
 81191  1  0  0  0  0
 82 83  2  0  0  0  0
 82 84  1  0  0  0  0
 84 85  1  0  0  0  0
 85192  1  0  0  0  0
 85193  1  0  0  0  0
 85194  1  0  0  0  0
M  END
>  <Energy>
663.178

$$$$