77
 OpenBabel03292021523D

 99103  0  0  1  0  0  0  0  0999 V2000
   12.0388    3.3194   -2.6648 C   0  0  0  0  0  0  0  0  0  0  0  0
   13.2425    4.0311   -2.0379 C   0  0  0  0  0  0  0  0  0  0  0  0
   14.5035    3.7454   -2.8626 C   0  0  0  0  0  0  0  0  0  0  0  0
   12.9586    5.5490   -2.1058 C   0  0  0  0  0  0  0  0  0  0  0  0
   13.4013    3.6527   -0.6144 N   0  0  0  0  0  0  0  0  0  0  0  0
   13.6259    2.3838   -0.0764 C   0  0  0  0  0  0  0  0  0  0  0  0
   13.8145    1.4153   -0.8139 O   0  0  0  0  0  0  0  0  0  0  0  0
   13.4749    2.2404    1.5176 C   0  0  2  0  0  0  0  0  0  0  0  0
   13.2781    3.6403    2.1565 C   0  0  0  0  0  0  0  0  0  0  0  0
   13.1753    3.6434    3.6818 C   0  0  2  0  0  0  0  0  0  0  0  0
   12.9994    5.0607    4.2436 C   0  0  0  0  0  0  0  0  0  0  0  0
   14.2659    5.9106    4.1499 C   0  0  0  0  0  0  0  0  0  0  0  0
   15.4734    5.2014    4.7555 C   0  0  0  0  0  0  0  0  0  0  0  0
   15.6793    3.8100    4.1596 C   0  0  0  0  0  0  0  0  0  0  0  0
   14.4038    2.9639    4.2843 C   0  0  2  0  0  0  0  0  0  0  0  0
   14.5448    1.5765    3.6645 C   0  0  0  0  0  0  0  0  0  0  0  0
   14.6056    1.5195    2.1908 N   0  0  0  0  0  0  0  0  0  0  0  0
   14.8429    0.1020    1.7927 C   0  0  0  0  0  0  0  0  0  0  0  0
   14.1460   -1.1084    2.5325 C   0  0  1  0  0  0  0  0  0  0  0  0
   14.9044   -2.2958    2.2200 O   0  0  0  0  0  0  0  0  0  0  0  0
   12.6463   -1.2774    2.1831 C   0  0  2  0  0  0  0  0  0  0  0  0
   11.8939   -2.3634    2.9913 C   0  0  0  0  0  0  0  0  0  0  0  0
   11.6458   -2.1098    4.4599 C   0  0  0  0  0  0  0  0  0  0  0  0
   11.3152   -0.8427    4.9579 C   0  0  0  0  0  0  0  0  0  0  0  0
   11.0511   -0.6580    6.3170 C   0  0  0  0  0  0  0  0  0  0  0  0
   11.0806   -1.7423    7.1902 C   0  0  0  0  0  0  0  0  0  0  0  0
   11.3593   -3.0159    6.7025 C   0  0  0  0  0  0  0  0  0  0  0  0
   11.6354   -3.1988    5.3464 C   0  0  0  0  0  0  0  0  0  0  0  0
   12.5057   -1.6090    0.7691 N   0  0  0  0  0  0  0  0  0  0  0  0
   11.6184   -0.9464   -0.0506 C   0  0  0  0  0  0  0  0  0  0  0  0
   10.9030   -0.0291    0.3417 O   0  0  0  0  0  0  0  0  0  0  0  0
   11.7369   -1.3993   -1.5119 C   0  0  2  0  0  0  0  0  0  0  0  0
   10.9461   -0.5008   -2.4519 C   0  0  0  0  0  0  0  0  0  0  0  0
    9.4785   -0.4293   -2.1521 C   0  0  0  0  0  0  0  0  0  0  0  0
    8.9083    0.7908   -2.4412 N   0  0  0  0  0  0  0  0  0  0  0  0
    8.8048   -1.3699   -1.7628 O   0  0  0  0  0  0  0  0  0  0  0  0
   11.5012   -2.8413   -1.6609 N   0  0  0  0  0  0  0  0  0  0  0  0
   12.1901   -3.5583   -2.6191 C   0  0  0  0  0  0  0  0  0  0  0  0
   13.0489   -3.0386   -3.3265 O   0  0  0  0  0  0  0  0  0  0  0  0
   11.8670   -5.0127   -2.7953 C   0  0  0  0  0  0  0  0  0  0  0  0
   12.3048   -5.6120   -3.9727 C   0  0  0  0  0  0  0  0  0  0  0  0
   12.1123   -6.9745   -4.1329 C   0  0  0  0  0  0  0  0  0  0  0  0
   11.5094   -7.7094   -3.1125 C   0  0  0  0  0  0  0  0  0  0  0  0
   11.3486   -9.0989   -3.2465 C   0  0  0  0  0  0  0  0  0  0  0  0
   10.7756   -9.8404   -2.2192 C   0  0  0  0  0  0  0  0  0  0  0  0
   10.3578   -9.1901   -1.0639 C   0  0  0  0  0  0  0  0  0  0  0  0
   10.5095   -7.7983   -0.9394 C   0  0  0  0  0  0  0  0  0  0  0  0
   11.0861   -7.0248   -1.9454 C   0  0  0  0  0  0  0  0  0  0  0  0
   11.2466   -5.6844   -1.7874 N   0  0  0  0  0  0  0  0  0  0  0  0
   11.7999    3.7263   -3.6548 H   0  0  0  0  0  0  0  0  0  0  0  0
   11.1452    3.4174   -2.0380 H   0  0  0  0  0  0  0  0  0  0  0  0
   12.2496    2.2598   -2.8015 H   0  0  0  0  0  0  0  0  0  0  0  0
   14.3686    4.0670   -3.9033 H   0  0  0  0  0  0  0  0  0  0  0  0
   14.7481    2.6794   -2.8810 H   0  0  0  0  0  0  0  0  0  0  0  0
   15.3699    4.2805   -2.4594 H   0  0  0  0  0  0  0  0  0  0  0  0
   12.7956    5.8816   -3.1383 H   0  0  0  0  0  0  0  0  0  0  0  0
   13.7931    6.1293   -1.6964 H   0  0  0  0  0  0  0  0  0  0  0  0
   12.0634    5.8107   -1.5287 H   0  0  0  0  0  0  0  0  0  0  0  0
   13.3525    4.4341    0.0175 H   0  0  0  0  0  0  0  0  0  0  0  0
   12.5470    1.6824    1.6715 H   0  0  0  0  0  0  0  0  0  0  0  0
   12.3554    4.0861    1.7621 H   0  0  0  0  0  0  0  0  0  0  0  0
   14.1068    4.2907    1.8517 H   0  0  0  0  0  0  0  0  0  0  0  0
   12.2816    3.0645    3.9534 H   0  0  0  0  0  0  0  0  0  0  0  0
   12.7081    4.9826    5.2990 H   0  0  0  0  0  0  0  0  0  0  0  0
   12.1755    5.5707    3.7306 H   0  0  0  0  0  0  0  0  0  0  0  0
   14.1028    6.8622    4.6685 H   0  0  0  0  0  0  0  0  0  0  0  0
   14.4740    6.1588    3.1029 H   0  0  0  0  0  0  0  0  0  0  0  0
   15.3336    5.1133    5.8403 H   0  0  0  0  0  0  0  0  0  0  0  0
   16.3734    5.8069    4.6006 H   0  0  0  0  0  0  0  0  0  0  0  0
   16.5028    3.3142    4.6876 H   0  0  0  0  0  0  0  0  0  0  0  0
   15.9936    3.9019    3.1136 H   0  0  0  0  0  0  0  0  0  0  0  0
   14.2170    2.8235    5.3589 H   0  0  0  0  0  0  0  0  0  0  0  0
   13.6815    1.0004    4.0174 H   0  0  0  0  0  0  0  0  0  0  0  0
   15.4431    1.1060    4.0866 H   0  0  0  0  0  0  0  0  0  0  0  0
   15.9214   -0.0504    1.9566 H   0  0  0  0  0  0  0  0  0  0  0  0
   14.7539   -0.0409    0.7138 H   0  0  0  0  0  0  0  0  0  0  0  0
   14.2541   -0.9942    3.6150 H   0  0  0  0  0  0  0  0  0  0  0  0
   14.3041   -2.9931    1.9159 H   0  0  0  0  0  0  0  0  0  0  0  0
   12.1492   -0.3222    2.3594 H   0  0  0  0  0  0  0  0  0  0  0  0
   10.9029   -2.5126    2.5375 H   0  0  0  0  0  0  0  0  0  0  0  0
   12.4144   -3.3226    2.8710 H   0  0  0  0  0  0  0  0  0  0  0  0
   11.2353    0.0176    4.2987 H   0  0  0  0  0  0  0  0  0  0  0  0
   10.8064    0.3327    6.6911 H   0  0  0  0  0  0  0  0  0  0  0  0
   10.8697   -1.5978    8.2461 H   0  0  0  0  0  0  0  0  0  0  0  0
   11.3538   -3.8694    7.3754 H   0  0  0  0  0  0  0  0  0  0  0  0
   11.8286   -4.2065    4.9832 H   0  0  0  0  0  0  0  0  0  0  0  0
   13.1310   -2.2770    0.3291 H   0  0  0  0  0  0  0  0  0  0  0  0
   12.7941   -1.2323   -1.7620 H   0  0  0  0  0  0  0  0  0  0  0  0
   11.3588    0.5051   -2.3523 H   0  0  0  0  0  0  0  0  0  0  0  0
   11.0736   -0.8086   -3.4946 H   0  0  0  0  0  0  0  0  0  0  0  0
    9.4759    1.6242   -2.4710 H   0  0  0  0  0  0  0  0  0  0  0  0
    7.9442    0.9048   -2.1519 H   0  0  0  0  0  0  0  0  0  0  0  0
   10.6795   -3.2635   -1.2351 H   0  0  0  0  0  0  0  0  0  0  0  0
   12.8009   -5.0314   -4.7403 H   0  0  0  0  0  0  0  0  0  0  0  0
   12.4576   -7.4552   -5.0447 H   0  0  0  0  0  0  0  0  0  0  0  0
   11.6784   -9.6082   -4.1468 H   0  0  0  0  0  0  0  0  0  0  0  0
   10.6626  -10.9180   -2.3201 H   0  0  0  0  0  0  0  0  0  0  0  0
    9.9161   -9.7633   -0.2532 H   0  0  0  0  0  0  0  0  0  0  0  0
   10.1795   -7.3151   -0.0269 H   0  0  0  0  0  0  0  0  0  0  0  0
  1  2  1  0  0  0  0
  1 50  1  0  0  0  0
  1 51  1  0  0  0  0
  1 52  1  0  0  0  0
  2  3  1  0  0  0  0
  2  4  1  0  0  0  0
  2  5  1  0  0  0  0
  3 53  1  0  0  0  0
  3 54  1  0  0  0  0
  3 55  1  0  0  0  0
  4 56  1  0  0  0  0
  4 57  1  0  0  0  0
  4 58  1  0  0  0  0
  5  6  1  0  0  0  0
  5 59  1  0  0  0  0
  6  7  2  0  0  0  0
  8  9  1  0  0  0  0
  8 17  1  0  0  0  0
  8  6  1  0  0  0  0
  8 60  1  1  0  0  0
  9 10  1  0  0  0  0
  9 61  1  0  0  0  0
  9 62  1  0  0  0  0
 10 11  1  0  0  0  0
 10 15  1  0  0  0  0
 10 63  1  1  0  0  0
 11 12  1  0  0  0  0
 11 64  1  0  0  0  0
 11 65  1  0  0  0  0
 12 13  1  0  0  0  0
 12 66  1  0  0  0  0
 12 67  1  0  0  0  0
 13 14  1  0  0  0  0
 13 68  1  0  0  0  0
 13 69  1  0  0  0  0
 14 15  1  0  0  0  0
 14 70  1  0  0  0  0
 14 71  1  0  0  0  0
 15 16  1  0  0  0  0
 15 72  1  1  0  0  0
 16 17  1  0  0  0  0
 16 73  1  0  0  0  0
 16 74  1  0  0  0  0
 17 18  1  0  0  0  0
 18 19  1  0  0  0  0
 18 75  1  0  0  0  0
 18 76  1  0  0  0  0
 19 20  1  0  0  0  0
 19 77  1  6  0  0  0
 20 78  1  0  0  0  0
 21 29  1  0  0  0  0
 21 22  1  0  0  0  0
 21 19  1  0  0  0  0
 21 79  1  1  0  0  0
 22 23  1  0  0  0  0
 22 80  1  0  0  0  0
 22 81  1  0  0  0  0
 23 24  1  0  0  0  0
 23 28  2  0  0  0  0
 24 25  2  0  0  0  0
 24 82  1  0  0  0  0
 25 26  1  0  0  0  0
 25 83  1  0  0  0  0
 26 27  2  0  0  0  0
 26 84  1  0  0  0  0
 27 28  1  0  0  0  0
 27 85  1  0  0  0  0
 28 86  1  0  0  0  0
 29 30  1  0  0  0  0
 29 87  1  0  0  0  0
 30 31  2  0  0  0  0
 32 37  1  0  0  0  0
 32 33  1  0  0  0  0
 32 30  1  0  0  0  0
 32 88  1  6  0  0  0
 33 34  1  0  0  0  0
 33 89  1  0  0  0  0
 33 90  1  0  0  0  0
 34 35  1  0  0  0  0
 34 36  2  0  0  0  0
 35 91  1  0  0  0  0
 35 92  1  0  0  0  0
 37 38  1  0  0  0  0
 37 93  1  0  0  0  0
 38 39  2  0  0  0  0
 38 40  1  0  0  0  0
 40 41  1  0  0  0  0
 40 49  2  0  0  0  0
 41 42  2  0  0  0  0
 41 94  1  0  0  0  0
 42 43  1  0  0  0  0
 42 95  1  0  0  0  0
 43 44  1  0  0  0  0
 43 48  2  0  0  0  0
 44 45  2  0  0  0  0
 44 96  1  0  0  0  0
 45 46  1  0  0  0  0
 45 97  1  0  0  0  0
 46 47  2  0  0  0  0
 46 98  1  0  0  0  0
 47 48  1  0  0  0  0
 47 99  1  0  0  0  0
 48 49  1  0  0  0  0
M  END
>  <Energy>
156.239

$$$$