78
 OpenBabel03292021523D

190190  0  0  1  0  0  0  0  0999 V2000
    4.2185   -2.2218   -4.9313 C   0  0  0  0  0  0  0  0  0  0  0  0
    5.6374   -1.7035   -5.1773 C   0  0  0  0  0  0  0  0  0  0  0  0
    6.4295   -0.9730   -4.3385 C   0  0  0  0  0  0  0  0  0  0  0  0
    7.9755   -0.3561   -4.6305 C   0  0  0  0  0  0  0  0  0  0  0  0
    9.1033    0.9621   -4.1281 C   0  0  1  0  0  0  0  0  0  0  0  0
    8.5163    1.2140   -2.6531 C   0  0  0  0  0  0  0  0  0  0  0  0
   10.8823    0.9183   -3.9168 C   0  0  1  0  0  0  0  0  0  0  0  0
   10.6668   -0.3123   -3.1322 O   0  0  0  0  0  0  0  0  0  0  0  0
   12.5925    0.7586   -4.7672 C   0  0  1  0  0  0  0  0  0  0  0  0
   14.4379    1.2731   -4.4774 C   0  0  0  0  0  0  0  0  0  0  0  0
   14.7417    1.9489   -3.4818 O   0  0  0  0  0  0  0  0  0  0  0  0
   15.6996    0.8137   -5.3405 N   0  0  0  0  0  0  0  0  0  0  0  0
   17.5109    0.9303   -5.1476 C   0  0  1  0  0  0  0  0  0  0  0  0
   18.2991    2.3326   -5.4244 C   0  0  0  0  0  0  0  0  0  0  0  0
   19.8772    2.5487   -5.5095 C   0  0  0  0  0  0  0  0  0  0  0  0
   18.6652   -0.3334   -5.2654 C   0  0  0  0  0  0  0  0  0  0  0  0
   18.6703   -1.1198   -4.3110 O   0  0  0  0  0  0  0  0  0  0  0  0
   19.6952   -0.5754   -6.2055 N   0  0  0  0  0  0  0  0  0  0  0  0
   20.1320    0.2314   -7.3316 C   0  0  0  0  0  0  0  0  0  0  0  0
   20.3262   -1.9511   -6.2379 C   0  0  0  0  0  0  0  0  0  0  0  0
   21.0760   -2.8329   -5.1706 C   0  0  0  0  0  0  0  0  0  0  0  0
   20.5483   -3.9291   -4.9231 O   0  0  0  0  0  0  0  0  0  0  0  0
   22.3354   -2.5295   -4.6321 N   0  0  0  0  0  0  0  0  0  0  0  0
   23.1627   -1.4095   -5.0826 C   0  0  0  0  0  0  0  0  0  0  0  0
   22.9739   -3.5159   -3.6727 C   0  0  2  0  0  0  0  0  0  0  0  0
   23.1254   -2.9836   -2.2203 C   0  0  0  0  0  0  0  0  0  0  0  0
   21.8125   -2.9340   -1.4076 C   0  0  0  0  0  0  0  0  0  0  0  0
   22.0272   -2.5020    0.0450 C   0  0  0  0  0  0  0  0  0  0  0  0
   20.8081   -1.9678   -2.0068 C   0  0  0  0  0  0  0  0  0  0  0  0
   24.3709   -4.0545   -4.1007 C   0  0  0  0  0  0  0  0  0  0  0  0
   25.3197   -3.2676   -4.3605 O   0  0  0  0  0  0  0  0  0  0  0  0
   24.6898   -5.3898   -4.1281 N   0  0  0  0  0  0  0  0  0  0  0  0
   23.8436   -6.6055   -4.2642 C   0  0  2  0  0  0  0  0  0  0  0  0
   22.8236   -6.4600   -5.4221 C   0  0  0  0  0  0  0  0  0  0  0  0
   21.8756   -7.6500   -5.5529 C   0  0  0  0  0  0  0  0  0  0  0  0
   23.5042   -6.1813   -6.7692 C   0  0  0  0  0  0  0  0  0  0  0  0
   23.1680   -6.9579   -2.9083 C   0  0  0  0  0  0  0  0  0  0  0  0
   22.4218   -6.1311   -2.3862 O   0  0  0  0  0  0  0  0  0  0  0  0
   23.4156   -8.1527   -2.2421 N   0  0  0  0  0  0  0  0  0  0  0  0
   24.0524   -9.3337   -2.8253 C   0  0  0  0  0  0  0  0  0  0  0  0
   22.8162   -8.2794   -0.8752 C   0  0  2  0  0  0  0  0  0  0  0  0
   23.8724   -8.5171    0.2211 C   0  0  0  0  0  0  0  0  0  0  0  0
   24.8784   -7.3521    0.3691 C   0  0  0  0  0  0  0  0  0  0  0  0
   24.2305   -6.0089    0.7290 C   0  0  0  0  0  0  0  0  0  0  0  0
   25.9054   -7.7047    1.4437 C   0  0  0  0  0  0  0  0  0  0  0  0
   21.6686   -9.3175   -0.7634 C   0  0  0  0  0  0  0  0  0  0  0  0
   21.8616  -10.5217   -0.9580 O   0  0  0  0  0  0  0  0  0  0  0  0
   20.3985   -8.9299   -0.4522 N   0  0  0  0  0  0  0  0  0  0  0  0
   19.8507   -7.5698   -0.2551 C   0  0  1  0  0  0  0  0  0  0  0  0
   18.4365   -7.5659   -0.7752 C   0  0  0  0  0  0  0  0  0  0  0  0
   20.1711   -7.0826    1.1894 C   0  0  0  0  0  0  0  0  0  0  0  0
   21.3048   -7.2554    1.6498 O   0  0  0  0  0  0  0  0  0  0  0  0
   19.3465   -6.4073    2.0368 N   0  0  0  0  0  0  0  0  0  0  0  0
   17.9409   -6.6295    2.3888 C   0  0  2  0  0  0  0  0  0  0  0  0
   17.5927   -8.1099    2.5355 C   0  0  0  0  0  0  0  0  0  0  0  0
   16.9695   -5.8141    1.5181 C   0  0  0  0  0  0  0  0  0  0  0  0
   16.1873   -6.3853    0.7617 O   0  0  0  0  0  0  0  0  0  0  0  0
   17.0649   -4.4214    1.6059 N   0  0  0  0  0  0  0  0  0  0  0  0
   16.8515   -3.7946    2.9061 C   0  0  0  0  0  0  0  0  0  0  0  0
   16.6248   -3.5873    0.4572 C   0  0  1  0  0  0  0  0  0  0  0  0
   17.5576   -3.7032   -0.7524 C   0  0  0  0  0  0  0  0  0  0  0  0
   17.0994   -2.8565   -1.9314 C   0  0  0  0  0  0  0  0  0  0  0  0
   17.2594   -1.3380   -1.7547 C   0  0  0  0  0  0  0  0  0  0  0  0
   17.6886   -3.4324   -3.2394 C   0  0  0  0  0  0  0  0  0  0  0  0
   15.0654   -3.5189    0.3185 C   0  0  0  0  0  0  0  0  0  0  0  0
   14.5280   -2.5951    0.9496 O   0  0  0  0  0  0  0  0  0  0  0  0
   14.2949   -4.4759   -0.3365 N   0  0  0  0  0  0  0  0  0  0  0  0
   14.7734   -5.4363   -1.3325 C   0  0  0  0  0  0  0  0  0  0  0  0
   12.8139   -4.5036   -0.1757 C   0  0  1  0  0  0  0  0  0  0  0  0
   12.2993   -4.3368    1.2695 C   0  0  0  0  0  0  0  0  0  0  0  0
   10.7599   -4.4005    1.3916 C   0  0  0  0  0  0  0  0  0  0  0  0
   10.2315   -5.7950    1.0634 C   0  0  0  0  0  0  0  0  0  0  0  0
   10.3211   -3.9508    2.7765 C   0  0  0  0  0  0  0  0  0  0  0  0
   12.0849   -3.5812   -1.1712 C   0  0  0  0  0  0  0  0  0  0  0  0
   11.1271   -3.9575   -1.8449 O   0  0  0  0  0  0  0  0  0  0  0  0
   12.4880   -2.2706   -1.1515 N   0  0  0  0  0  0  0  0  0  0  0  0
   11.7258   -1.3541   -0.3151 C   0  0  0  0  0  0  0  0  0  0  0  0
   13.4139   -1.8240   -2.2106 C   0  0  1  0  0  0  0  0  0  0  0  0
   13.8798   -2.8356   -3.2372 C   0  0  0  0  0  0  0  0  0  0  0  0
   13.0307   -0.5718   -2.9446 C   0  0  0  0  0  0  0  0  0  0  0  0
   12.8887    0.4660   -2.2749 O   0  0  0  0  0  0  0  0  0  0  0  0
   12.8551   -0.5981   -4.3691 N   0  0  0  0  0  0  0  0  0  0  0  0
   12.0188   -1.5946   -5.0749 C   0  0  0  0  0  0  0  0  0  0  0  0
    3.8658   -2.7994   -5.8029 H   0  0  0  0  0  0  0  0  0  0  0  0
    3.4846   -1.4157   -4.8032 H   0  0  0  0  0  0  0  0  0  0  0  0
    4.1433   -2.9054   -4.0768 H   0  0  0  0  0  0  0  0  0  0  0  0
    6.0137   -1.9693   -6.1621 H   0  0  0  0  0  0  0  0  0  0  0  0
    5.9986   -0.7438   -3.3570 H   0  0  0  0  0  0  0  0  0  0  0  0
    8.2951   -0.9895   -3.7936 H   0  0  0  0  0  0  0  0  0  0  0  0
    7.3036    0.5145   -4.7428 H   0  0  0  0  0  0  0  0  0  0  0  0
    8.8710    1.8342   -4.7491 H   0  0  0  0  0  0  0  0  0  0  0  0
    8.6165    0.3155   -2.0230 H   0  0  0  0  0  0  0  0  0  0  0  0
    7.4407    1.4331   -2.6606 H   0  0  0  0  0  0  0  0  0  0  0  0
    9.0262    2.0301   -2.1381 H   0  0  0  0  0  0  0  0  0  0  0  0
   11.0500    1.7568   -3.2312 H   0  0  0  0  0  0  0  0  0  0  0  0
   10.7740   -0.0315   -2.2102 H   0  0  0  0  0  0  0  0  0  0  0  0
   12.4307    0.8703   -5.8454 H   0  0  0  0  0  0  0  0  0  0  0  0
   15.4772    0.0415   -5.9522 H   0  0  0  0  0  0  0  0  0  0  0  0
   17.4580    0.9739   -4.0467 H   0  0  0  0  0  0  0  0  0  0  0  0
   17.9054    2.7784   -6.3351 H   0  0  0  0  0  0  0  0  0  0  0  0
   18.0582    2.9625   -4.5642 H   0  0  0  0  0  0  0  0  0  0  0  0
   20.1179    3.5879   -5.2328 H   0  0  0  0  0  0  0  0  0  0  0  0
   20.2755    2.5233   -6.5326 H   0  0  0  0  0  0  0  0  0  0  0  0
   20.5095    1.9155   -4.8729 H   0  0  0  0  0  0  0  0  0  0  0  0
   21.1106    0.6452   -7.0916 H   0  0  0  0  0  0  0  0  0  0  0  0
   19.4065    1.0039   -7.5847 H   0  0  0  0  0  0  0  0  0  0  0  0
   20.2777   -0.3916   -8.2312 H   0  0  0  0  0  0  0  0  0  0  0  0
   21.0254   -1.9746   -7.0880 H   0  0  0  0  0  0  0  0  0  0  0  0
   19.4879   -2.5861   -6.5634 H   0  0  0  0  0  0  0  0  0  0  0  0
   22.5413   -0.6262   -5.5124 H   0  0  0  0  0  0  0  0  0  0  0  0
   23.8544   -1.7732   -5.8357 H   0  0  0  0  0  0  0  0  0  0  0  0
   23.7139   -1.0003   -4.2330 H   0  0  0  0  0  0  0  0  0  0  0  0
   22.3102   -4.3661   -3.6197 H   0  0  0  0  0  0  0  0  0  0  0  0
   23.8190   -3.6408   -1.6597 H   0  0  0  0  0  0  0  0  0  0  0  0
   23.5820   -1.9934   -2.2209 H   0  0  0  0  0  0  0  0  0  0  0  0
   21.3591   -3.9328   -1.3906 H   0  0  0  0  0  0  0  0  0  0  0  0
   22.4219   -1.4818    0.0977 H   0  0  0  0  0  0  0  0  0  0  0  0
   22.7064   -3.1747    0.5672 H   0  0  0  0  0  0  0  0  0  0  0  0
   21.0703   -2.5098    0.5881 H   0  0  0  0  0  0  0  0  0  0  0  0
   21.2140   -0.9624   -2.1472 H   0  0  0  0  0  0  0  0  0  0  0  0
   19.9492   -1.9067   -1.3479 H   0  0  0  0  0  0  0  0  0  0  0  0
   20.4395   -2.3257   -2.9543 H   0  0  0  0  0  0  0  0  0  0  0  0
   25.6595   -5.5157   -4.3821 H   0  0  0  0  0  0  0  0  0  0  0  0
   24.5800   -7.3628   -4.5191 H   0  0  0  0  0  0  0  0  0  0  0  0
   22.1864   -5.6031   -5.2281 H   0  0  0  0  0  0  0  0  0  0  0  0
   22.4129   -8.5704   -5.7945 H   0  0  0  0  0  0  0  0  0  0  0  0
   21.1421   -7.4637   -6.3473 H   0  0  0  0  0  0  0  0  0  0  0  0
   21.3059   -7.8079   -4.6307 H   0  0  0  0  0  0  0  0  0  0  0  0
   24.1099   -7.0319   -7.0945 H   0  0  0  0  0  0  0  0  0  0  0  0
   24.1517   -5.3004   -6.7206 H   0  0  0  0  0  0  0  0  0  0  0  0
   22.7547   -5.9792   -7.5430 H   0  0  0  0  0  0  0  0  0  0  0  0
   24.4496   -9.1603   -3.8241 H   0  0  0  0  0  0  0  0  0  0  0  0
   23.3080  -10.1262   -2.9233 H   0  0  0  0  0  0  0  0  0  0  0  0
   24.8734   -9.6738   -2.1875 H   0  0  0  0  0  0  0  0  0  0  0  0
   22.3693   -7.3266   -0.6162 H   0  0  0  0  0  0  0  0  0  0  0  0
   23.3697   -8.6823    1.1824 H   0  0  0  0  0  0  0  0  0  0  0  0
   24.4190   -9.4474    0.0219 H   0  0  0  0  0  0  0  0  0  0  0  0
   25.4107   -7.2260   -0.5811 H   0  0  0  0  0  0  0  0  0  0  0  0
   23.7299   -6.0542    1.7014 H   0  0  0  0  0  0  0  0  0  0  0  0
   23.4996   -5.6825   -0.0132 H   0  0  0  0  0  0  0  0  0  0  0  0
   24.9899   -5.2209    0.7813 H   0  0  0  0  0  0  0  0  0  0  0  0
   25.4229   -7.8338    2.4190 H   0  0  0  0  0  0  0  0  0  0  0  0
   26.6546   -6.9117    1.5381 H   0  0  0  0  0  0  0  0  0  0  0  0
   26.4262   -8.6345    1.1946 H   0  0  0  0  0  0  0  0  0  0  0  0
   19.7426   -9.6930   -0.3460 H   0  0  0  0  0  0  0  0  0  0  0  0
   20.4071   -6.8840   -0.9035 H   0  0  0  0  0  0  0  0  0  0  0  0
   17.7846   -8.2684   -0.2534 H   0  0  0  0  0  0  0  0  0  0  0  0
   18.4169   -7.8479   -1.8349 H   0  0  0  0  0  0  0  0  0  0  0  0
   18.0210   -6.5726   -0.7117 H   0  0  0  0  0  0  0  0  0  0  0  0
   19.9042   -6.1420    2.8413 H   0  0  0  0  0  0  0  0  0  0  0  0
   17.8418   -6.2309    3.4023 H   0  0  0  0  0  0  0  0  0  0  0  0
   18.0798   -8.7431    1.7909 H   0  0  0  0  0  0  0  0  0  0  0  0
   16.5143   -8.2845    2.4805 H   0  0  0  0  0  0  0  0  0  0  0  0
   17.9398   -8.4729    3.5096 H   0  0  0  0  0  0  0  0  0  0  0  0
   17.3631   -4.3422    3.6926 H   0  0  0  0  0  0  0  0  0  0  0  0
   15.7750   -3.7811    3.1179 H   0  0  0  0  0  0  0  0  0  0  0  0
   17.2418   -2.7745    2.9010 H   0  0  0  0  0  0  0  0  0  0  0  0
   16.8629   -2.5626    0.7868 H   0  0  0  0  0  0  0  0  0  0  0  0
   17.6334   -4.7350   -1.0754 H   0  0  0  0  0  0  0  0  0  0  0  0
   18.5772   -3.4431   -0.4477 H   0  0  0  0  0  0  0  0  0  0  0  0
   16.0792   -2.9888   -2.0127 H   0  0  0  0  0  0  0  0  0  0  0  0
   18.2399   -1.0046   -1.5156 H   0  0  0  0  0  0  0  0  0  0  0  0
   16.6198   -0.9931   -0.9314 H   0  0  0  0  0  0  0  0  0  0  0  0
   16.9377   -0.8050   -2.6483 H   0  0  0  0  0  0  0  0  0  0  0  0
   18.7567   -3.5307   -3.2038 H   0  0  0  0  0  0  0  0  0  0  0  0
   17.3839   -2.8526   -4.1079 H   0  0  0  0  0  0  0  0  0  0  0  0
   17.2836   -4.4374   -3.4111 H   0  0  0  0  0  0  0  0  0  0  0  0
   15.8267   -5.3466   -1.5554 H   0  0  0  0  0  0  0  0  0  0  0  0
   14.2243   -5.2958   -2.2689 H   0  0  0  0  0  0  0  0  0  0  0  0
   14.5390   -6.4509   -1.0136 H   0  0  0  0  0  0  0  0  0  0  0  0
   12.5277   -5.5178   -0.4817 H   0  0  0  0  0  0  0  0  0  0  0  0
   12.6147   -3.3849    1.7009 H   0  0  0  0  0  0  0  0  0  0  0  0
   12.7594   -5.1078    1.8994 H   0  0  0  0  0  0  0  0  0  0  0  0
   10.3012   -3.7022    0.6815 H   0  0  0  0  0  0  0  0  0  0  0  0
   10.6815   -6.5494    1.7146 H   0  0  0  0  0  0  0  0  0  0  0  0
   10.4446   -6.0704    0.0255 H   0  0  0  0  0  0  0  0  0  0  0  0
    9.1450   -5.8336    1.1872 H   0  0  0  0  0  0  0  0  0  0  0  0
   10.7896   -4.5573    3.5842 H   0  0  0  0  0  0  0  0  0  0  0  0
    9.2401   -4.0217    2.8886 H   0  0  0  0  0  0  0  0  0  0  0  0
   10.6014   -2.8984    2.9530 H   0  0  0  0  0  0  0  0  0  0  0  0
   11.6694   -1.7273    0.7091 H   0  0  0  0  0  0  0  0  0  0  0  0
   10.6838   -1.3133   -0.6646 H   0  0  0  0  0  0  0  0  0  0  0  0
   12.1549   -0.3510   -0.2517 H   0  0  0  0  0  0  0  0  0  0  0  0
   14.2931   -1.4837   -1.6476 H   0  0  0  0  0  0  0  0  0  0  0  0
   13.0723   -3.4526   -3.6312 H   0  0  0  0  0  0  0  0  0  0  0  0
   14.5837   -3.5221   -2.8233 H   0  0  0  0  0  0  0  0  0  0  0  0
   14.4210   -2.3655   -4.0669 H   0  0  0  0  0  0  0  0  0  0  0  0
   12.6219   -2.0600   -5.8506 H   0  0  0  0  0  0  0  0  0  0  0  0
   11.1741   -1.0955   -5.5736 H   0  0  0  0  0  0  0  0  0  0  0  0
   11.5795   -2.3279   -4.3968 H   0  0  0  0  0  0  0  0  0  0  0  0
  1  2  1  0  0  0  0
  1 84  1  0  0  0  0
  1 85  1  0  0  0  0
  1 86  1  0  0  0  0
  2  3  2  0  0  0  0
  2 87  1  0  0  0  0
  3  4  1  0  0  0  0
  3 88  1  0  0  0  0
  4  5  1  0  0  0  0
  4 89  1  0  0  0  0
  4 90  1  0  0  0  0
  5  6  1  0  0  0  0
  5  7  1  0  0  0  0
  5 91  1  6  0  0  0
  6 92  1  0  0  0  0
  6 93  1  0  0  0  0
  6 94  1  0  0  0  0
  7  8  1  0  0  0  0
  7  9  1  0  0  0  0
  7 95  1  1  0  0  0
  8 96  1  0  0  0  0
  9 10  1  0  0  0  0
  9 82  1  0  0  0  0
  9 97  1  6  0  0  0
 10 11  2  0  0  0  0
 10 12  1  0  0  0  0
 12 13  1  0  0  0  0
 12 98  1  0  0  0  0
 13 14  1  0  0  0  0
 13 16  1  0  0  0  0
 13 99  1  6  0  0  0
 14 15  1  0  0  0  0
 14100  1  0  0  0  0
 14101  1  0  0  0  0
 15102  1  0  0  0  0
 15103  1  0  0  0  0
 15104  1  0  0  0  0
 16 17  2  0  0  0  0
 16 18  1  0  0  0  0
 18 19  1  0  0  0  0
 18 20  1  0  0  0  0
 19105  1  0  0  0  0
 19106  1  0  0  0  0
 19107  1  0  0  0  0
 20 21  1  0  0  0  0
 20108  1  0  0  0  0
 20109  1  0  0  0  0
 21 22  2  0  0  0  0
 21 23  1  0  0  0  0
 23 24  1  0  0  0  0
 23 25  1  0  0  0  0
 24110  1  0  0  0  0
 24111  1  0  0  0  0
 24112  1  0  0  0  0
 25 30  1  0  0  0  0
 25 26  1  0  0  0  0
 25113  1  1  0  0  0
 26 27  1  0  0  0  0
 26114  1  0  0  0  0
 26115  1  0  0  0  0
 27 28  1  0  0  0  0
 27 29  1  0  0  0  0
 27116  1  0  0  0  0
 28117  1  0  0  0  0
 28118  1  0  0  0  0
 28119  1  0  0  0  0
 29120  1  0  0  0  0
 29121  1  0  0  0  0
 29122  1  0  0  0  0
 30 31  2  0  0  0  0
 30 32  1  0  0  0  0
 32 33  1  0  0  0  0
 32123  1  0  0  0  0
 33 37  1  0  0  0  0
 33 34  1  0  0  0  0
 33124  1  6  0  0  0
 34 35  1  0  0  0  0
 34 36  1  0  0  0  0
 34125  1  0  0  0  0
 35126  1  0  0  0  0
 35127  1  0  0  0  0
 35128  1  0  0  0  0
 36129  1  0  0  0  0
 36130  1  0  0  0  0
 36131  1  0  0  0  0
 37 38  2  0  0  0  0
 37 39  1  0  0  0  0
 39 40  1  0  0  0  0
 39 41  1  0  0  0  0
 40132  1  0  0  0  0
 40133  1  0  0  0  0
 40134  1  0  0  0  0
 41 46  1  0  0  0  0
 41 42  1  0  0  0  0
 41135  1  1  0  0  0
 42 43  1  0  0  0  0
 42136  1  0  0  0  0
 42137  1  0  0  0  0
 43 44  1  0  0  0  0
 43 45  1  0  0  0  0
 43138  1  0  0  0  0
 44139  1  0  0  0  0
 44140  1  0  0  0  0
 44141  1  0  0  0  0
 45142  1  0  0  0  0
 45143  1  0  0  0  0
 45144  1  0  0  0  0
 46 47  2  0  0  0  0
 46 48  1  0  0  0  0
 48 49  1  0  0  0  0
 48145  1  0  0  0  0
 49 50  1  0  0  0  0
 49 51  1  0  0  0  0
 49146  1  6  0  0  0
 50147  1  0  0  0  0
 50148  1  0  0  0  0
 50149  1  0  0  0  0
 51 52  2  0  0  0  0
 51 53  1  0  0  0  0
 53 54  1  0  0  0  0
 53150  1  0  0  0  0
 54 56  1  0  0  0  0
 54 55  1  0  0  0  0
 54151  1  1  0  0  0
 55152  1  0  0  0  0
 55153  1  0  0  0  0
 55154  1  0  0  0  0
 56 57  2  0  0  0  0
 56 58  1  0  0  0  0
 58 59  1  0  0  0  0
 58 60  1  0  0  0  0
 59155  1  0  0  0  0
 59156  1  0  0  0  0
 59157  1  0  0  0  0
 60 61  1  0  0  0  0
 60 65  1  0  0  0  0
 60158  1  1  0  0  0
 61 62  1  0  0  0  0
 61159  1  0  0  0  0
 61160  1  0  0  0  0
 62 63  1  0  0  0  0
 62 64  1  0  0  0  0
 62161  1  0  0  0  0
 63162  1  0  0  0  0
 63163  1  0  0  0  0
 63164  1  0  0  0  0
 64165  1  0  0  0  0
 64166  1  0  0  0  0
 64167  1  0  0  0  0
 65 66  2  0  0  0  0
 65 67  1  0  0  0  0
 67 68  1  0  0  0  0
 67 69  1  0  0  0  0
 68168  1  0  0  0  0
 68169  1  0  0  0  0
 68170  1  0  0  0  0
 69 70  1  0  0  0  0
 69 74  1  0  0  0  0
 69171  1  6  0  0  0
 70 71  1  0  0  0  0
 70172  1  0  0  0  0
 70173  1  0  0  0  0
 71 72  1  0  0  0  0
 71 73  1  0  0  0  0
 71174  1  0  0  0  0
 72175  1  0  0  0  0
 72176  1  0  0  0  0
 72177  1  0  0  0  0
 73178  1  0  0  0  0
 73179  1  0  0  0  0
 73180  1  0  0  0  0
 74 75  2  0  0  0  0
 74 76  1  0  0  0  0
 76 77  1  0  0  0  0
 76 78  1  0  0  0  0
 77181  1  0  0  0  0
 77182  1  0  0  0  0
 77183  1  0  0  0  0
 78 79  1  0  0  0  0
 78 80  1  0  0  0  0
 78184  1  1  0  0  0
 79185  1  0  0  0  0
 79186  1  0  0  0  0
 79187  1  0  0  0  0
 80 81  2  0  0  0  0
 80 82  1  0  0  0  0
 82 83  1  0  0  0  0
 83188  1  0  0  0  0
 83189  1  0  0  0  0
 83190  1  0  0  0  0
M  END
>  <Energy>
808.153

$$$$