4171
  -OEChem-03242010103D

 44 44  0     1  0  0  0  0  0999 V2000
   -1.3954   -1.7122   -0.3795 O   0  0  0  0  0  0  0  0  0  0  0  0
   -4.1582   -2.0204   -0.4451 O   0  0  0  0  0  0  0  0  0  0  0  0
    4.0373    1.5035   -0.3111 O   0  0  0  0  0  0  0  0  0  0  0  0
   -2.9238    1.2955    0.6468 N   0  0  0  0  0  0  0  0  0  0  0  0
   -3.5569   -1.0932    0.4633 C   0  0  2  0  0  0  0  0  0  0  0  0
   -3.5555    0.2885   -0.1950 C   0  0  0  0  0  0  0  0  0  0  0  0
   -2.8852    2.5868   -0.0258 C   0  0  0  0  0  0  0  0  0  0  0  0
   -2.1591   -1.5960    0.8171 C   0  0  0  0  0  0  0  0  0  0  0  0
   -2.1014    2.4803   -1.3309 C   0  0  0  0  0  0  0  0  0  0  0  0
   -2.2641    3.6250    0.9032 C   0  0  0  0  0  0  0  0  0  0  0  0
   -0.0458   -1.5095   -0.2701 C   0  0  0  0  0  0  0  0  0  0  0  0
    2.6957   -1.0965   -0.0452 C   0  0  0  0  0  0  0  0  0  0  0  0
    4.1656   -0.8757    0.0746 C   0  0  0  0  0  0  0  0  0  0  0  0
    0.6033   -1.8232    0.9192 C   0  0  0  0  0  0  0  0  0  0  0  0
    0.6638   -0.9911   -1.3481 C   0  0  0  0  0  0  0  0  0  0  0  0
    1.9782   -1.6160    1.0320 C   0  0  0  0  0  0  0  0  0  0  0  0
    2.0386   -0.7840   -1.2354 C   0  0  0  0  0  0  0  0  0  0  0  0
    4.5201    0.5204    0.5956 C   0  0  0  0  0  0  0  0  0  0  0  0
    4.3427    2.8179    0.1343 C   0  0  0  0  0  0  0  0  0  0  0  0
   -4.1700   -1.0762    1.3723 H   0  0  0  0  0  0  0  0  0  0  0  0
   -3.0558    0.1742   -1.1623 H   0  0  0  0  0  0  0  0  0  0  0  0
   -4.5912    0.5749   -0.4200 H   0  0  0  0  0  0  0  0  0  0  0  0
   -3.9062    2.9196   -0.2531 H   0  0  0  0  0  0  0  0  0  0  0  0
   -3.4309    1.3742    1.5278 H   0  0  0  0  0  0  0  0  0  0  0  0
   -2.2358   -2.5947    1.2633 H   0  0  0  0  0  0  0  0  0  0  0  0
   -1.7094   -0.9094    1.5446 H   0  0  0  0  0  0  0  0  0  0  0  0
   -2.6654    1.9734   -2.1200 H   0  0  0  0  0  0  0  0  0  0  0  0
   -1.1451    1.9629   -1.1919 H   0  0  0  0  0  0  0  0  0  0  0  0
   -1.8730    3.4802   -1.7189 H   0  0  0  0  0  0  0  0  0  0  0  0
   -1.2325    3.3631    1.1647 H   0  0  0  0  0  0  0  0  0  0  0  0
   -2.2496    4.6119    0.4280 H   0  0  0  0  0  0  0  0  0  0  0  0
   -2.8366    3.7152    1.8331 H   0  0  0  0  0  0  0  0  0  0  0  0
    4.6051   -1.6336    0.7349 H   0  0  0  0  0  0  0  0  0  0  0  0
    4.6308   -1.0246   -0.9087 H   0  0  0  0  0  0  0  0  0  0  0  0
   -5.0624   -1.7105   -0.6238 H   0  0  0  0  0  0  0  0  0  0  0  0
    2.4799   -1.8681    1.9626 H   0  0  0  0  0  0  0  0  0  0  0  0
    2.5850   -0.3787   -2.0829 H   0  0  0  0  0  0  0  0  0  0  0  0
    0.0885   -2.2588    1.7701 H   0  0  0  0  0  0  0  0  0  0  0  0
    0.1553   -0.7450   -2.2760 H   0  0  0  0  0  0  0  0  0  0  0  0
    4.0739    0.6814    1.5845 H   0  0  0  0  0  0  0  0  0  0  0  0
    5.6093    0.6073    0.6829 H   0  0  0  0  0  0  0  0  0  0  0  0
    5.4256    2.9553    0.2115 H   0  0  0  0  0  0  0  0  0  0  0  0
    3.9521    3.5288   -0.5987 H   0  0  0  0  0  0  0  0  0  0  0  0
    3.8672    3.0158    1.0998 H   0  0  0  0  0  0  0  0  0  0  0  0
  1  8  1  0  0  0  0
  1 11  1  0  0  0  0
  2  5  1  0  0  0  0
  2 35  1  0  0  0  0
  3 18  1  0  0  0  0
  3 19  1  0  0  0  0
  4  6  1  0  0  0  0
  4  7  1  0  0  0  0
  4 24  1  0  0  0  0
  5  6  1  0  0  0  0
  5  8  1  0  0  0  0
  5 20  1  0  0  0  0
  6 21  1  0  0  0  0
  6 22  1  0  0  0  0
  7  9  1  0  0  0  0
  7 10  1  0  0  0  0
  7 23  1  0  0  0  0
  8 25  1  0  0  0  0
  8 26  1  0  0  0  0
  9 27  1  0  0  0  0
  9 28  1  0  0  0  0
  9 29  1  0  0  0  0
 10 30  1  0  0  0  0
 10 31  1  0  0  0  0
 10 32  1  0  0  0  0
 11 14  2  0  0  0  0
 11 15  1  0  0  0  0
 12 13  1  0  0  0  0
 12 16  2  0  0  0  0
 12 17  1  0  0  0  0
 13 18  1  0  0  0  0
 13 33  1  0  0  0  0
 13 34  1  0  0  0  0
 14 16  1  0  0  0  0
 14 38  1  0  0  0  0
 15 17  2  0  0  0  0
 15 39  1  0  0  0  0
 16 36  1  0  0  0  0
 17 37  1  0  0  0  0
 18 40  1  0  0  0  0
 18 41  1  0  0  0  0
 19 42  1  0  0  0  0
 19 43  1  0  0  0  0
 19 44  1  0  0  0  0
M  END
> <PUBCHEM_COMPOUND_CID>
4171

> <PUBCHEM_CONFORMER_RMSD>
1

> <PUBCHEM_CONFORMER_DIVERSEORDER>
2
198
4
274
591
378
140
218
204
576
20
441
6
606
224
477
101
21
554
195
99
212
530
202
485
359
72
143
58
233
64
567
455
553
362
66
329
166
269
384
465
291
165
371
437
201
312
9
5
52
162
308
474
12
169
51
11
78
128
154
159
310
26
194
446
283
27
82
7
230
124
172
59
55
276
70
25
519
185
68
168
391
328
10
468
1
22
13
470
54

> <PUBCHEM_MMFF94_PARTIAL_CHARGES>
23
1 -0.36
11 0.08
12 -0.14
13 0.14
14 -0.15
15 -0.15
16 -0.15
17 -0.15
18 0.28
19 0.28
2 -0.68
24 0.36
3 -0.56
35 0.4
36 0.15
37 0.15
38 0.15
39 0.15
4 -0.9
5 0.28
6 0.27
7 0.27
8 0.28

> <PUBCHEM_EFFECTIVE_ROTOR_COUNT>
9

> <PUBCHEM_PHARMACOPHORE_FEATURES>
8
1 1 acceptor
1 2 acceptor
1 2 donor
1 3 acceptor
1 4 cation
1 4 donor
3 7 9 10 hydrophobe
6 11 12 14 15 16 17 rings

> <PUBCHEM_HEAVY_ATOM_COUNT>
19

> <PUBCHEM_ATOM_DEF_STEREO_COUNT>
0

> <PUBCHEM_ATOM_UDEF_STEREO_COUNT>
1

> <PUBCHEM_BOND_DEF_STEREO_COUNT>
0

> <PUBCHEM_BOND_UDEF_STEREO_COUNT>
0

> <PUBCHEM_ISOTOPIC_ATOM_COUNT>
0

> <PUBCHEM_COMPONENT_COUNT>
1

> <PUBCHEM_CACTVS_TAUTO_COUNT>
1

> <PUBCHEM_CONFORMER_ID>
0000104B00000002

> <PUBCHEM_MMFF94_ENERGY>
41.5224

> <PUBCHEM_FEATURE_SELFOVERLAP>
40.6

> <PUBCHEM_SHAPE_FINGERPRINT>
10498660 4 18410008806510949373
10646746 165 18338801113491938422
10670039 82 18263378022168464740
11595378 159 18115009883833359352
11759241 127 18131071562619199399
11796584 16 11170183242555412370
12596602 18 16951120824012626472
12633257 1 17973716983303380248
12644460 14 15285930225302009534
12670546 56 18261105266650166010
12715332 25 9151185263375649727
13965767 371 17391923543770622837
14123250 116 18126003763361563025
14251751 93 18411131433579236432
14251764 38 18412265008687809792
14466204 15 18191297188072774586
14739800 52 18338498846942435168
14957384 54 18044927983199198256
15961568 22 18267026235660796628
17834072 32 18194965132555375369
20621476 13 16245746292943840973
21095088 737 18338216216218906773
21623110 236 18411423951048948193
21652331 79 18339361984396085570
21734292 116 18196652015505552464
21864079 5 18196653995226421801
22182937 141 18268714917822020505
23402539 116 18411975893280927271
23557571 272 18412827980305783143
23559900 14 17984420742132958374
3472631 163 18269837519705520309
3524813 1 18129378370457614192
5281201 14 18060148613315997558

> <PUBCHEM_SHAPE_MULTIPOLES>
368.42
9.12
3.81
1.15
4.3
3.76
-0.18
3.68
0.77
-1.9
0.5
-0.05
0
-0.04

> <PUBCHEM_SHAPE_SELFOVERLAP>
729.076

> <PUBCHEM_SHAPE_VOLUME>
220.6

> <PUBCHEM_COORDINATE_TYPE>
2
5
10

$$$$