79
 OpenBabel03292021523D

195196  0  0  1  0  0  0  0  0999 V2000
    5.0665   -1.2481   -4.5029 C   0  0  0  0  0  0  0  0  0  0  0  0
    6.2303   -1.8993   -5.3609 C   0  0  0  0  0  0  0  0  0  0  0  0
    7.8256   -2.2235   -4.8005 C   0  0  2  0  0  0  0  0  0  0  0  0
    9.0064   -2.8491   -6.1539 N   0  0  0  0  0  0  0  0  0  0  0  0
   10.2115   -3.9537   -6.4910 C   0  0  0  0  0  0  0  0  0  0  0  0
   10.3875   -4.8000   -5.6047 O   0  0  0  0  0  0  0  0  0  0  0  0
   11.3615   -4.0982   -8.0751 C   0  0  2  0  0  0  0  0  0  0  0  0
   12.4450   -5.2579   -9.1449 C   0  0  0  0  0  0  0  0  0  0  0  0
   13.8799   -5.5158  -10.4441 C   0  0  0  0  0  0  0  0  0  0  0  0
   15.3346   -4.8340  -10.6624 C   0  0  0  0  0  0  0  0  0  0  0  0
   16.6600   -5.6835  -10.5878 C   0  0  0  0  0  0  0  0  0  0  0  0
   16.6633   -7.0065  -11.3537 C   0  0  0  0  0  0  0  0  0  0  0  0
   15.3538   -7.7538  -11.1415 C   0  0  0  0  0  0  0  0  0  0  0  0
   14.0562   -6.8973  -11.2779 C   0  0  0  0  0  0  0  0  0  0  0  0
   12.1721   -2.8862   -8.1537 N   0  0  0  0  0  0  0  0  0  0  0  0
   13.5034   -2.9921   -7.5787 C   0  0  0  0  0  0  0  0  0  0  0  0
   11.9823   -2.1529   -9.3537 C   0  0  0  0  0  0  0  0  0  0  0  0
   12.8199   -2.0252  -10.2392 O   0  0  0  0  0  0  0  0  0  0  0  0
   10.6981   -1.3328   -9.2382 C   0  0  2  0  0  0  0  0  0  0  0  0
    9.4250   -1.5883  -10.0949 C   0  0  0  0  0  0  0  0  0  0  0  0
    8.3364   -0.6618   -9.5164 C   0  0  0  0  0  0  0  0  0  0  0  0
    8.8654   -3.0092  -10.0835 C   0  0  0  0  0  0  0  0  0  0  0  0
   11.2035    0.0557   -9.2898 N   0  0  0  0  0  0  0  0  0  0  0  0
   11.3779    0.6616  -10.6119 C   0  0  0  0  0  0  0  0  0  0  0  0
   12.0196    0.4324   -8.1960 C   0  0  0  0  0  0  0  0  0  0  0  0
   12.0859   -0.3527   -7.1526 O   0  0  0  0  0  0  0  0  0  0  0  0
   12.6548    1.7900   -8.1285 C   0  0  2  0  0  0  0  0  0  0  0  0
   14.1523    1.7501   -7.7736 C   0  0  0  0  0  0  0  0  0  0  0  0
   15.0644    1.1661   -8.8639 C   0  0  0  0  0  0  0  0  0  0  0  0
   14.9976    1.9317  -10.1856 C   0  0  0  0  0  0  0  0  0  0  0  0
   16.5115    1.1864   -8.3630 C   0  0  0  0  0  0  0  0  0  0  0  0
   11.8778    2.4945   -7.0961 N   0  0  0  0  0  0  0  0  0  0  0  0
   11.8544    1.9542   -5.7246 C   0  0  0  0  0  0  0  0  0  0  0  0
   11.0676    3.5008   -7.5651 C   0  0  0  0  0  0  0  0  0  0  0  0
   11.1969    3.9105   -8.7276 O   0  0  0  0  0  0  0  0  0  0  0  0
   10.0340    4.1627   -6.6299 C   0  0  2  0  0  0  0  0  0  0  0  0
    8.5744    3.8921   -7.0641 C   0  0  0  0  0  0  0  0  0  0  0  0
    8.0933    2.4310   -7.0274 C   0  0  0  0  0  0  0  0  0  0  0  0
    8.0677    1.8402   -5.6245 C   0  0  0  0  0  0  0  0  0  0  0  0
    6.6695    2.3496   -7.5961 C   0  0  0  0  0  0  0  0  0  0  0  0
   10.3364    5.6232   -6.6511 N   0  0  0  0  0  0  0  0  0  0  0  0
   10.1234    6.3329   -7.9106 C   0  0  0  0  0  0  0  0  0  0  0  0
   11.3476    6.0346   -5.7873 C   0  0  0  0  0  0  0  0  0  0  0  0
   11.9705    5.2116   -5.1041 O   0  0  0  0  0  0  0  0  0  0  0  0
   11.5590    7.5303   -5.4689 C   0  0  1  0  0  0  0  0  0  0  0  0
   11.5233    8.5726   -6.5731 C   0  0  0  0  0  0  0  0  0  0  0  0
   10.6766    7.9258   -4.3682 N   0  0  0  0  0  0  0  0  0  0  0  0
   11.2307    8.0455   -3.1182 C   0  0  0  0  0  0  0  0  0  0  0  0
   11.2768    9.1746   -2.6297 O   0  0  0  0  0  0  0  0  0  0  0  0
   11.8042    6.7942   -2.4182 C   0  0  2  0  0  0  0  0  0  0  0  0
   10.9460    5.5476   -2.3954 C   0  0  0  0  0  0  0  0  0  0  0  0
   12.3452    7.0871   -1.0887 N   0  0  0  0  0  0  0  0  0  0  0  0
   11.8592    7.3816    0.1384 C   0  0  0  0  0  0  0  0  0  0  0  0
   12.7580    7.3525    1.0015 O   0  0  0  0  0  0  0  0  0  0  0  0
   10.3830    7.8030    0.5663 C   0  0  1  0  0  0  0  0  0  0  0  0
    9.2983    7.7260   -0.5010 C   0  0  0  0  0  0  0  0  0  0  0  0
    7.9764    8.5013   -0.3140 C   0  0  0  0  0  0  0  0  0  0  0  0
    8.1152   10.0071   -0.4771 C   0  0  0  0  0  0  0  0  0  0  0  0
    6.9745    7.8834   -1.3004 C   0  0  0  0  0  0  0  0  0  0  0  0
   10.0941    7.0707    1.8672 N   0  0  0  0  0  0  0  0  0  0  0  0
   10.8164    7.6557    3.0027 C   0  0  0  0  0  0  0  0  0  0  0  0
    8.9276    6.3133    2.0769 C   0  0  0  0  0  0  0  0  0  0  0  0
    7.8728    6.5537    1.4818 O   0  0  0  0  0  0  0  0  0  0  0  0
    8.9009    4.9858    2.9129 C   0  0  1  0  0  0  0  0  0  0  0  0
    9.4849    5.1010    4.3381 C   0  0  0  0  0  0  0  0  0  0  0  0
    8.8531    6.2174    5.1776 C   0  0  0  0  0  0  0  0  0  0  0  0
    9.4041    3.7810    5.1104 C   0  0  0  0  0  0  0  0  0  0  0  0
    7.4714    4.4558    2.9629 N   0  0  0  0  0  0  0  0  0  0  0  0
    6.5791    3.7999    2.1417 C   0  0  0  0  0  0  0  0  0  0  0  0
    5.4456    3.6512    2.6338 O   0  0  0  0  0  0  0  0  0  0  0  0
    6.7982    3.3488    0.6325 C   0  0  1  0  0  0  0  0  0  0  0  0
    8.2146    3.5942    0.1563 C   0  0  0  0  0  0  0  0  0  0  0  0
    8.5432    3.0707   -1.2405 C   0  0  0  0  0  0  0  0  0  0  0  0
    8.0066    4.0122   -2.3113 C   0  0  0  0  0  0  0  0  0  0  0  0
   10.0277    2.7243   -1.2117 C   0  0  0  0  0  0  0  0  0  0  0  0
    6.2999    1.9792    0.1154 N   0  0  0  0  0  0  0  0  0  0  0  0
    4.8611    1.8013    0.1070 C   0  0  0  0  0  0  0  0  0  0  0  0
    7.1414    0.8722    0.2914 C   0  0  0  0  0  0  0  0  0  0  0  0
    7.9257    0.9204    1.2598 O   0  0  0  0  0  0  0  0  0  0  0  0
    7.3437   -0.4529   -0.7074 C   0  0  0  0  0  0  0  0  0  0  0  0
    6.9109   -1.2313   -2.0085 N   0  0  0  0  0  0  0  0  0  0  0  0
    5.7428   -2.0660   -1.6564 C   0  0  0  0  0  0  0  0  0  0  0  0
    7.8955   -1.3679   -3.1429 C   0  0  0  0  0  0  0  0  0  0  0  0
    8.8858   -0.6109   -3.0272 O   0  0  0  0  0  0  0  0  0  0  0  0
    5.3685   -0.5203   -3.7436 H   0  0  0  0  0  0  0  0  0  0  0  0
    4.3977   -1.9952   -4.0510 H   0  0  0  0  0  0  0  0  0  0  0  0
    4.3684   -0.6738   -5.1356 H   0  0  0  0  0  0  0  0  0  0  0  0
    6.3434   -1.1615   -6.1691 H   0  0  0  0  0  0  0  0  0  0  0  0
    5.8078   -2.7995   -5.8140 H   0  0  0  0  0  0  0  0  0  0  0  0
    8.1822   -1.2442   -5.1880 H   0  0  0  0  0  0  0  0  0  0  0  0
    8.6808   -2.4275   -7.0054 H   0  0  0  0  0  0  0  0  0  0  0  0
   10.5719   -4.0512   -8.7868 H   0  0  0  0  0  0  0  0  0  0  0  0
   11.7333   -5.9933   -9.5320 H   0  0  0  0  0  0  0  0  0  0  0  0
   12.3347   -4.4241   -9.8583 H   0  0  0  0  0  0  0  0  0  0  0  0
   13.3478   -4.9616  -11.2535 H   0  0  0  0  0  0  0  0  0  0  0  0
   15.4615   -3.8819  -10.1486 H   0  0  0  0  0  0  0  0  0  0  0  0
   15.3524   -4.5593  -11.7352 H   0  0  0  0  0  0  0  0  0  0  0  0
   16.9301   -5.8811   -9.5494 H   0  0  0  0  0  0  0  0  0  0  0  0
   17.5010   -5.1001  -11.0079 H   0  0  0  0  0  0  0  0  0  0  0  0
   17.5114   -7.6331  -11.0216 H   0  0  0  0  0  0  0  0  0  0  0  0
   16.8688   -6.8524  -12.4261 H   0  0  0  0  0  0  0  0  0  0  0  0
   15.3827   -8.2451  -10.1664 H   0  0  0  0  0  0  0  0  0  0  0  0
   15.3417   -8.5643  -11.8908 H   0  0  0  0  0  0  0  0  0  0  0  0
   13.1751   -7.5372  -11.2189 H   0  0  0  0  0  0  0  0  0  0  0  0
   14.1096   -6.5932  -12.3464 H   0  0  0  0  0  0  0  0  0  0  0  0
   14.0650   -3.8419   -7.9795 H   0  0  0  0  0  0  0  0  0  0  0  0
   13.3943   -3.1329   -6.5003 H   0  0  0  0  0  0  0  0  0  0  0  0
   14.0891   -2.0900   -7.7754 H   0  0  0  0  0  0  0  0  0  0  0  0
   10.3489   -1.4548   -8.2057 H   0  0  0  0  0  0  0  0  0  0  0  0
    9.5881   -1.3446  -11.1517 H   0  0  0  0  0  0  0  0  0  0  0  0
    8.2521   -0.8047   -8.4357 H   0  0  0  0  0  0  0  0  0  0  0  0
    7.3540   -0.8622   -9.9545 H   0  0  0  0  0  0  0  0  0  0  0  0
    8.5852    0.3866   -9.6948 H   0  0  0  0  0  0  0  0  0  0  0  0
    8.6821   -3.3725   -9.0692 H   0  0  0  0  0  0  0  0  0  0  0  0
    9.5212   -3.7100  -10.6138 H   0  0  0  0  0  0  0  0  0  0  0  0
    7.8954   -3.0521  -10.5925 H   0  0  0  0  0  0  0  0  0  0  0  0
   10.8533    0.1664  -11.3865 H   0  0  0  0  0  0  0  0  0  0  0  0
   12.4443    0.6690  -10.8792 H   0  0  0  0  0  0  0  0  0  0  0  0
   11.0170    1.7119  -10.5662 H   0  0  0  0  0  0  0  0  0  0  0  0
   12.5477    2.2625   -9.0824 H   0  0  0  0  0  0  0  0  0  0  0  0
   14.4585    2.7818   -7.5589 H   0  0  0  0  0  0  0  0  0  0  0  0
   14.3228    1.1824   -6.8519 H   0  0  0  0  0  0  0  0  0  0  0  0
   14.7758    0.1235   -9.0435 H   0  0  0  0  0  0  0  0  0  0  0  0
   15.3577    2.9585  -10.0701 H   0  0  0  0  0  0  0  0  0  0  0  0
   13.9879    1.9912  -10.5884 H   0  0  0  0  0  0  0  0  0  0  0  0
   15.6109    1.4340  -10.9439 H   0  0  0  0  0  0  0  0  0  0  0  0
   16.8532    2.2153   -8.1996 H   0  0  0  0  0  0  0  0  0  0  0  0
   17.1806    0.7203   -9.0928 H   0  0  0  0  0  0  0  0  0  0  0  0
   16.6104    0.6446   -7.4171 H   0  0  0  0  0  0  0  0  0  0  0  0
   12.6812    1.2580   -5.5412 H   0  0  0  0  0  0  0  0  0  0  0  0
   10.9242    1.3993   -5.5623 H   0  0  0  0  0  0  0  0  0  0  0  0
   11.9451    2.7523   -5.0038 H   0  0  0  0  0  0  0  0  0  0  0  0
   10.1474    3.8149   -5.6013 H   0  0  0  0  0  0  0  0  0  0  0  0
    7.9126    4.5006   -6.4341 H   0  0  0  0  0  0  0  0  0  0  0  0
    8.4206    4.2433   -8.0893 H   0  0  0  0  0  0  0  0  0  0  0  0
    8.7517    1.8257   -7.6613 H   0  0  0  0  0  0  0  0  0  0  0  0
    7.3261    2.3388   -4.9938 H   0  0  0  0  0  0  0  0  0  0  0  0
    9.0272    1.9099   -5.1179 H   0  0  0  0  0  0  0  0  0  0  0  0
    7.7970    0.7852   -5.6787 H   0  0  0  0  0  0  0  0  0  0  0  0
    5.9632    2.8944   -6.9578 H   0  0  0  0  0  0  0  0  0  0  0  0
    6.3322    1.3093   -7.6534 H   0  0  0  0  0  0  0  0  0  0  0  0
    6.6136    2.7784   -8.6012 H   0  0  0  0  0  0  0  0  0  0  0  0
    9.6811    5.7058   -8.6856 H   0  0  0  0  0  0  0  0  0  0  0  0
   11.0845    6.6778   -8.3010 H   0  0  0  0  0  0  0  0  0  0  0  0
    9.4355    7.1600   -7.7415 H   0  0  0  0  0  0  0  0  0  0  0  0
   12.5906    7.5757   -5.0897 H   0  0  0  0  0  0  0  0  0  0  0  0
   10.5128    8.7473   -6.9510 H   0  0  0  0  0  0  0  0  0  0  0  0
   12.1839    8.3007   -7.4000 H   0  0  0  0  0  0  0  0  0  0  0  0
   11.8629    9.5390   -6.1839 H   0  0  0  0  0  0  0  0  0  0  0  0
   10.1953    8.7948   -4.5646 H   0  0  0  0  0  0  0  0  0  0  0  0
   12.6918    6.5384   -3.0069 H   0  0  0  0  0  0  0  0  0  0  0  0
   10.3855    5.4744   -1.4685 H   0  0  0  0  0  0  0  0  0  0  0  0
   11.5894    4.6608   -2.4183 H   0  0  0  0  0  0  0  0  0  0  0  0
   10.2512    5.4769   -3.2299 H   0  0  0  0  0  0  0  0  0  0  0  0
   13.3276    6.8579   -1.0000 H   0  0  0  0  0  0  0  0  0  0  0  0
   10.4802    8.8665    0.8271 H   0  0  0  0  0  0  0  0  0  0  0  0
    9.0702    6.6757   -0.6681 H   0  0  0  0  0  0  0  0  0  0  0  0
    9.6874    8.1027   -1.4311 H   0  0  0  0  0  0  0  0  0  0  0  0
    7.5690    8.3983    0.6892 H   0  0  0  0  0  0  0  0  0  0  0  0
    8.2986   10.2957   -1.5142 H   0  0  0  0  0  0  0  0  0  0  0  0
    8.9269   10.3930    0.1472 H   0  0  0  0  0  0  0  0  0  0  0  0
    7.1934   10.4962   -0.1404 H   0  0  0  0  0  0  0  0  0  0  0  0
    7.2740    8.0708   -2.3373 H   0  0  0  0  0  0  0  0  0  0  0  0
    5.9629    8.2631   -1.1453 H   0  0  0  0  0  0  0  0  0  0  0  0
    6.9311    6.7934   -1.1698 H   0  0  0  0  0  0  0  0  0  0  0  0
   11.5135    8.4411    2.6823 H   0  0  0  0  0  0  0  0  0  0  0  0
   11.4072    6.9074    3.5245 H   0  0  0  0  0  0  0  0  0  0  0  0
   10.1123    8.1544    3.6677 H   0  0  0  0  0  0  0  0  0  0  0  0
    9.5035    4.2601    2.3660 H   0  0  0  0  0  0  0  0  0  0  0  0
   10.5536    5.3028    4.2368 H   0  0  0  0  0  0  0  0  0  0  0  0
    7.9023    5.9094    5.6181 H   0  0  0  0  0  0  0  0  0  0  0  0
    8.6449    7.1175    4.5971 H   0  0  0  0  0  0  0  0  0  0  0  0
    9.5301    6.5009    5.9919 H   0  0  0  0  0  0  0  0  0  0  0  0
    8.3848    3.5764    5.4518 H   0  0  0  0  0  0  0  0  0  0  0  0
   10.0486    3.8247    5.9958 H   0  0  0  0  0  0  0  0  0  0  0  0
    9.7382    2.9410    4.4940 H   0  0  0  0  0  0  0  0  0  0  0  0
    6.9606    4.7900    3.7710 H   0  0  0  0  0  0  0  0  0  0  0  0
    6.1732    4.0739    0.0811 H   0  0  0  0  0  0  0  0  0  0  0  0
    8.8847    3.1273    0.8788 H   0  0  0  0  0  0  0  0  0  0  0  0
    8.4310    4.6623    0.1728 H   0  0  0  0  0  0  0  0  0  0  0  0
    8.0582    2.1246   -1.4696 H   0  0  0  0  0  0  0  0  0  0  0  0
    8.3649    5.0346   -2.2099 H   0  0  0  0  0  0  0  0  0  0  0  0
    6.9120    4.0718   -2.2432 H   0  0  0  0  0  0  0  0  0  0  0  0
    8.2514    3.6478   -3.3095 H   0  0  0  0  0  0  0  0  0  0  0  0
   10.6277    3.5140   -0.7519 H   0  0  0  0  0  0  0  0  0  0  0  0
   10.4176    2.4667   -2.1943 H   0  0  0  0  0  0  0  0  0  0  0  0
   10.1707    1.8544   -0.5541 H   0  0  0  0  0  0  0  0  0  0  0  0
    4.3490    2.7746    0.1054 H   0  0  0  0  0  0  0  0  0  0  0  0
    4.5514    1.2474    0.9990 H   0  0  0  0  0  0  0  0  0  0  0  0
    4.5659    1.2511   -0.7870 H   0  0  0  0  0  0  0  0  0  0  0  0
    7.1214   -1.2074    0.0694 H   0  0  0  0  0  0  0  0  0  0  0  0
    8.4340   -0.4615   -0.7796 H   0  0  0  0  0  0  0  0  0  0  0  0
    6.0422   -2.8096   -0.9062 H   0  0  0  0  0  0  0  0  0  0  0  0
    5.2754   -2.6113   -2.4606 H   0  0  0  0  0  0  0  0  0  0  0  0
    4.9940   -1.4219   -1.1571 H   0  0  0  0  0  0  0  0  0  0  0  0
  1  2  1  0  0  0  0
  1 85  1  0  0  0  0
  1 86  1  0  0  0  0
  1 87  1  0  0  0  0
  2  3  1  0  0  0  0
  2 88  1  0  0  0  0
  2 89  1  0  0  0  0
  3  4  1  0  0  0  0
  3 83  1  0  0  0  0
  3 90  1  6  0  0  0
  4  5  1  0  0  0  0
  4 91  1  0  0  0  0
  5  6  2  0  0  0  0
  5  7  1  0  0  0  0
  7 15  1  0  0  0  0
  7  8  1  0  0  0  0
  7 92  1  6  0  0  0
  8  9  1  0  0  0  0
  8 93  1  0  0  0  0
  8 94  1  0  0  0  0
  9 10  1  0  0  0  0
  9 14  1  0  0  0  0
  9 95  1  0  0  0  0
 10 11  1  0  0  0  0
 10 96  1  0  0  0  0
 10 97  1  0  0  0  0
 11 12  1  0  0  0  0
 11 98  1  0  0  0  0
 11 99  1  0  0  0  0
 12 13  1  0  0  0  0
 12100  1  0  0  0  0
 12101  1  0  0  0  0
 13 14  1  0  0  0  0
 13102  1  0  0  0  0
 13103  1  0  0  0  0
 14104  1  0  0  0  0
 14105  1  0  0  0  0
 15 16  1  0  0  0  0
 15 17  1  0  0  0  0
 16106  1  0  0  0  0
 16107  1  0  0  0  0
 16108  1  0  0  0  0
 17 18  2  0  0  0  0
 17 19  1  0  0  0  0
 19 23  1  0  0  0  0
 19 20  1  0  0  0  0
 19109  1  1  0  0  0
 20 21  1  0  0  0  0
 20 22  1  0  0  0  0
 20110  1  0  0  0  0
 21111  1  0  0  0  0
 21112  1  0  0  0  0
 21113  1  0  0  0  0
 22114  1  0  0  0  0
 22115  1  0  0  0  0
 22116  1  0  0  0  0
 23 24  1  0  0  0  0
 23 25  1  0  0  0  0
 24117  1  0  0  0  0
 24118  1  0  0  0  0
 24119  1  0  0  0  0
 25 26  2  0  0  0  0
 25 27  1  0  0  0  0
 27 32  1  0  0  0  0
 27 28  1  0  0  0  0
 27120  1  6  0  0  0
 28 29  1  0  0  0  0
 28121  1  0  0  0  0
 28122  1  0  0  0  0
 29 30  1  0  0  0  0
 29 31  1  0  0  0  0
 29123  1  0  0  0  0
 30124  1  0  0  0  0
 30125  1  0  0  0  0
 30126  1  0  0  0  0
 31127  1  0  0  0  0
 31128  1  0  0  0  0
 31129  1  0  0  0  0
 32 33  1  0  0  0  0
 32 34  1  0  0  0  0
 33130  1  0  0  0  0
 33131  1  0  0  0  0
 33132  1  0  0  0  0
 34 35  2  0  0  0  0
 34 36  1  0  0  0  0
 36 41  1  0  0  0  0
 36 37  1  0  0  0  0
 36133  1  1  0  0  0
 37 38  1  0  0  0  0
 37134  1  0  0  0  0
 37135  1  0  0  0  0
 38 39  1  0  0  0  0
 38 40  1  0  0  0  0
 38136  1  0  0  0  0
 39137  1  0  0  0  0
 39138  1  0  0  0  0
 39139  1  0  0  0  0
 40140  1  0  0  0  0
 40141  1  0  0  0  0
 40142  1  0  0  0  0
 41 42  1  0  0  0  0
 41 43  1  0  0  0  0
 42143  1  0  0  0  0
 42144  1  0  0  0  0
 42145  1  0  0  0  0
 43 44  2  0  0  0  0
 43 45  1  0  0  0  0
 45 46  1  0  0  0  0
 45 47  1  0  0  0  0
 45146  1  1  0  0  0
 46147  1  0  0  0  0
 46148  1  0  0  0  0
 46149  1  0  0  0  0
 47 48  1  0  0  0  0
 47150  1  0  0  0  0
 48 49  2  0  0  0  0
 48 50  1  0  0  0  0
 50 52  1  0  0  0  0
 50 51  1  0  0  0  0
 50151  1  6  0  0  0
 51152  1  0  0  0  0
 51153  1  0  0  0  0
 51154  1  0  0  0  0
 52 53  1  0  0  0  0
 52155  1  0  0  0  0
 53 54  2  0  0  0  0
 53 55  1  0  0  0  0
 55 56  1  0  0  0  0
 55 60  1  0  0  0  0
 55156  1  1  0  0  0
 56 57  1  0  0  0  0
 56157  1  0  0  0  0
 56158  1  0  0  0  0
 57 58  1  0  0  0  0
 57 59  1  0  0  0  0
 57159  1  0  0  0  0
 58160  1  0  0  0  0
 58161  1  0  0  0  0
 58162  1  0  0  0  0
 59163  1  0  0  0  0
 59164  1  0  0  0  0
 59165  1  0  0  0  0
 60 61  1  0  0  0  0
 60 62  1  0  0  0  0
 61166  1  0  0  0  0
 61167  1  0  0  0  0
 61168  1  0  0  0  0
 62 63  2  0  0  0  0
 62 64  1  0  0  0  0
 64 65  1  0  0  0  0
 64 68  1  0  0  0  0
 64169  1  6  0  0  0
 65 66  1  0  0  0  0
 65 67  1  0  0  0  0
 65170  1  0  0  0  0
 66171  1  0  0  0  0
 66172  1  0  0  0  0
 66173  1  0  0  0  0
 67174  1  0  0  0  0
 67175  1  0  0  0  0
 67176  1  0  0  0  0
 68 69  1  0  0  0  0
 68177  1  0  0  0  0
 69 70  2  0  0  0  0
 69 71  1  0  0  0  0
 71 72  1  0  0  0  0
 71 76  1  0  0  0  0
 71178  1  6  0  0  0
 72 73  1  0  0  0  0
 72179  1  0  0  0  0
 72180  1  0  0  0  0
 73 74  1  0  0  0  0
 73 75  1  0  0  0  0
 73181  1  0  0  0  0
 74182  1  0  0  0  0
 74183  1  0  0  0  0
 74184  1  0  0  0  0
 75185  1  0  0  0  0
 75186  1  0  0  0  0
 75187  1  0  0  0  0
 76 77  1  0  0  0  0
 76 78  1  0  0  0  0
 77188  1  0  0  0  0
 77189  1  0  0  0  0
 77190  1  0  0  0  0
 78 79  2  0  0  0  0
 78 80  1  0  0  0  0
 80 81  1  0  0  0  0
 80191  1  0  0  0  0
 80192  1  0  0  0  0
 81 82  1  0  0  0  0
 81 83  1  0  0  0  0
 82193  1  0  0  0  0
 82194  1  0  0  0  0
 82195  1  0  0  0  0
 83 84  2  0  0  0  0
M  END
>  <Energy>
893.837

$$$$