15950351
  -OEChem-03242010103D

 70 75  0     1  0  0  0  0  0999 V2000
   -3.1659    3.1040   -1.5605 O   0  0  0  0  0  0  0  0  0  0  0  0
   -6.2772   -1.7924    0.1858 O   0  0  0  0  0  0  0  0  0  0  0  0
    5.1035    1.0699    0.1667 N   0  0  2  0  0  0  0  0  0  0  0  0
   -2.6716    2.0520    0.4834 N   0  0  0  0  0  0  0  0  0  0  0  0
   -4.7330   -0.0562   -0.1696 N   0  0  0  0  0  0  0  0  0  0  0  0
   -3.3509   -4.6505   -0.6000 N   0  0  0  0  0  0  0  0  0  0  0  0
    5.6558    1.9480   -0.8721 C   0  0  0  0  0  0  0  0  0  0  0  0
    5.6741   -0.2835    0.0457 C   0  0  0  0  0  0  0  0  0  0  0  0
    7.1554    2.1547   -0.6357 C   0  0  0  0  0  0  0  0  0  0  0  0
    7.1845   -0.2926   -0.0139 C   0  0  0  0  0  0  0  0  0  0  0  0
    3.6446    1.0171    0.0802 C   0  0  0  0  0  0  0  0  0  0  0  0
    7.8912    0.8644   -0.3840 C   0  0  0  0  0  0  0  0  0  0  0  0
    3.0127    2.2530    0.7217 C   0  0  0  0  0  0  0  0  0  0  0  0
    7.8864   -1.4791    0.2388 C   0  0  0  0  0  0  0  0  0  0  0  0
    9.2896    0.8283   -0.4595 C   0  0  0  0  0  0  0  0  0  0  0  0
    1.5070    2.2002    0.6591 C   0  0  0  0  0  0  0  0  0  0  0  0
    9.2781   -1.5077    0.1515 C   0  0  0  0  0  0  0  0  0  0  0  0
    9.9790   -0.3547   -0.1949 C   0  0  0  0  0  0  0  0  0  0  0  0
    0.7860    1.6097    1.6969 C   0  0  0  0  0  0  0  0  0  0  0  0
    0.8352    2.7414   -0.4372 C   0  0  0  0  0  0  0  0  0  0  0  0
   -0.6069    1.5602    1.6385 C   0  0  0  0  0  0  0  0  0  0  0  0
   -0.5574    2.6920   -0.4957 C   0  0  0  0  0  0  0  0  0  0  0  0
   -1.2785    2.1015    0.5422 C   0  0  0  0  0  0  0  0  0  0  0  0
   -3.5102    2.5383   -0.5283 C   0  0  0  0  0  0  0  0  0  0  0  0
   -4.9665    2.3604   -0.2891 C   0  0  0  0  0  0  0  0  0  0  0  0
   -5.5261    1.0939   -0.1203 C   0  0  0  0  0  0  0  0  0  0  0  0
   -5.7774    3.4940   -0.2346 C   0  0  0  0  0  0  0  0  0  0  0  0
   -6.8966    0.9612    0.1032 C   0  0  0  0  0  0  0  0  0  0  0  0
   -4.0481   -2.3953   -0.0949 C   0  0  0  0  0  0  0  0  0  0  0  0
   -1.7334   -3.0400    0.1723 C   0  0  0  0  0  0  0  0  0  0  0  0
   -5.1381   -1.3873   -0.0193 C   0  0  0  0  0  0  0  0  0  0  0  0
   -2.7439   -2.0722    0.2509 C   0  0  0  0  0  0  0  0  0  0  0  0
   -7.1480    3.3611   -0.0112 C   0  0  0  0  0  0  0  0  0  0  0  0
   -2.0861   -4.3342   -0.2639 C   0  0  0  0  0  0  0  0  0  0  0  0
   -7.7075    2.0948    0.1576 C   0  0  0  0  0  0  0  0  0  0  0  0
   -4.2965   -3.6876   -0.5106 C   0  0  0  0  0  0  0  0  0  0  0  0
   -0.4030   -2.7445    0.5150 C   0  0  0  0  0  0  0  0  0  0  0  0
   -1.0820   -5.2954   -0.3413 C   0  0  0  0  0  0  0  0  0  0  0  0
    0.5811   -3.7250    0.4278 C   0  0  0  0  0  0  0  0  0  0  0  0
    0.2407   -5.0020   -0.0006 C   0  0  0  0  0  0  0  0  0  0  0  0
    5.1846    2.9365   -0.8658 H   0  0  0  0  0  0  0  0  0  0  0  0
    5.4887    1.5209   -1.8707 H   0  0  0  0  0  0  0  0  0  0  0  0
    5.3614   -0.8722    0.9174 H   0  0  0  0  0  0  0  0  0  0  0  0
    5.2974   -0.7841   -0.8566 H   0  0  0  0  0  0  0  0  0  0  0  0
    7.3019    2.8060    0.2354 H   0  0  0  0  0  0  0  0  0  0  0  0
    7.5836    2.6618   -1.5087 H   0  0  0  0  0  0  0  0  0  0  0  0
    3.3076    0.8900   -0.9575 H   0  0  0  0  0  0  0  0  0  0  0  0
    3.2742    0.1394    0.6284 H   0  0  0  0  0  0  0  0  0  0  0  0
    3.3463    3.1776    0.2365 H   0  0  0  0  0  0  0  0  0  0  0  0
    3.3292    2.3387    1.7698 H   0  0  0  0  0  0  0  0  0  0  0  0
    7.3513   -2.3872    0.5048 H   0  0  0  0  0  0  0  0  0  0  0  0
    9.8481    1.7223   -0.7248 H   0  0  0  0  0  0  0  0  0  0  0  0
    9.8155   -2.4298    0.3530 H   0  0  0  0  0  0  0  0  0  0  0  0
   11.0629   -0.3769   -0.2590 H   0  0  0  0  0  0  0  0  0  0  0  0
    1.2981    1.1821    2.5547 H   0  0  0  0  0  0  0  0  0  0  0  0
    1.3876    3.2016   -1.2524 H   0  0  0  0  0  0  0  0  0  0  0  0
   -1.1562    1.0949    2.4531 H   0  0  0  0  0  0  0  0  0  0  0  0
   -1.0031    3.1313   -1.3767 H   0  0  0  0  0  0  0  0  0  0  0  0
   -3.1240    1.6138    1.2832 H   0  0  0  0  0  0  0  0  0  0  0  0
   -5.3544    4.4872   -0.3619 H   0  0  0  0  0  0  0  0  0  0  0  0
   -3.7541    0.1146   -0.3772 H   0  0  0  0  0  0  0  0  0  0  0  0
   -7.4119    0.0227    0.2442 H   0  0  0  0  0  0  0  0  0  0  0  0
   -2.4842   -1.0839    0.6208 H   0  0  0  0  0  0  0  0  0  0  0  0
   -7.7793    4.2437    0.0320 H   0  0  0  0  0  0  0  0  0  0  0  0
   -8.7749    1.9930    0.3317 H   0  0  0  0  0  0  0  0  0  0  0  0
   -5.2908   -4.0130   -0.8013 H   0  0  0  0  0  0  0  0  0  0  0  0
   -0.1250   -1.7481    0.8512 H   0  0  0  0  0  0  0  0  0  0  0  0
   -1.3227   -6.3034   -0.6743 H   0  0  0  0  0  0  0  0  0  0  0  0
    1.6080   -3.4926    0.6930 H   0  0  0  0  0  0  0  0  0  0  0  0
    1.0021   -5.7732   -0.0716 H   0  0  0  0  0  0  0  0  0  0  0  0
  1 24  2  0  0  0  0
  2 31  2  0  0  0  0
  3  7  1  0  0  0  0
  3  8  1  0  0  0  0
  3 11  1  0  0  0  0
  4 23  1  0  0  0  0
  4 24  1  0  0  0  0
  4 59  1  0  0  0  0
  5 26  1  0  0  0  0
  5 31  1  0  0  0  0
  5 61  1  0  0  0  0
  6 34  1  0  0  0  0
  6 36  2  0  0  0  0
  7  9  1  0  0  0  0
  7 41  1  0  0  0  0
  7 42  1  0  0  0  0
  8 10  1  0  0  0  0
  8 43  1  0  0  0  0
  8 44  1  0  0  0  0
  9 12  1  0  0  0  0
  9 45  1  0  0  0  0
  9 46  1  0  0  0  0
 10 12  1  0  0  0  0
 10 14  2  0  0  0  0
 11 13  1  0  0  0  0
 11 47  1  0  0  0  0
 11 48  1  0  0  0  0
 12 15  2  0  0  0  0
 13 16  1  0  0  0  0
 13 49  1  0  0  0  0
 13 50  1  0  0  0  0
 14 17  1  0  0  0  0
 14 51  1  0  0  0  0
 15 18  1  0  0  0  0
 15 52  1  0  0  0  0
 16 19  2  0  0  0  0
 16 20  1  0  0  0  0
 17 18  2  0  0  0  0
 17 53  1  0  0  0  0
 18 54  1  0  0  0  0
 19 21  1  0  0  0  0
 19 55  1  0  0  0  0
 20 22  2  0  0  0  0
 20 56  1  0  0  0  0
 21 23  2  0  0  0  0
 21 57  1  0  0  0  0
 22 23  1  0  0  0  0
 22 58  1  0  0  0  0
 24 25  1  0  0  0  0
 25 26  1  0  0  0  0
 25 27  2  0  0  0  0
 26 28  2  0  0  0  0
 27 33  1  0  0  0  0
 27 60  1  0  0  0  0
 28 35  1  0  0  0  0
 28 62  1  0  0  0  0
 29 31  1  0  0  0  0
 29 32  2  0  0  0  0
 29 36  1  0  0  0  0
 30 32  1  0  0  0  0
 30 34  1  0  0  0  0
 30 37  2  0  0  0  0
 32 63  1  0  0  0  0
 33 35  2  0  0  0  0
 33 64  1  0  0  0  0
 34 38  2  0  0  0  0
 35 65  1  0  0  0  0
 36 66  1  0  0  0  0
 37 39  1  0  0  0  0
 37 67  1  0  0  0  0
 38 40  1  0  0  0  0
 38 68  1  0  0  0  0
 39 40  2  0  0  0  0
 39 69  1  0  0  0  0
 40 70  1  0  0  0  0
M  END
> <PUBCHEM_COMPOUND_CID>
15950351

> <PUBCHEM_CONFORMER_RMSD>
1.4

> <PUBCHEM_CONFORMER_DIVERSEORDER>
1
112
74
79
85
66
109
110
70
95
52
31
108
44
118
83
9
73
87
96
10
38
93
77
58
99
61
116
39
62
60
78
91
29
15
68
89
27
76
35
45
64
80
22
104
12
119
67
111
37
47
103
56
46
105
81
2
65
107
4
25
23
72
49
28
40
94
42
75
7
120
13
114
86
88
106
41
63
3
33
30
100
92
43
69
101
6
20
98
117
97
14
82
36
51
71
8
121
32
113
34
115
57
21
18
5
48
84
17
50
90
24
54
55
102
11
53
59
26
16
19

> <PUBCHEM_MMFF94_PARTIAL_CHARGES>
59
1 -0.57
10 -0.14
11 0.27
12 -0.14
13 0.14
14 -0.15
15 -0.15
16 -0.14
17 -0.15
18 -0.15
19 -0.15
2 -0.57
20 -0.15
21 -0.15
22 -0.15
23 0.12
24 0.54
25 0.09
26 0.12
27 -0.15
28 -0.15
29 0.09
3 -0.81
31 0.54
32 -0.15
33 -0.15
34 0.31
35 -0.15
36 0.16
37 -0.15
38 -0.15
39 -0.15
4 -0.55
40 -0.15
5 -0.55
51 0.15
52 0.15
53 0.15
54 0.15
55 0.15
56 0.15
57 0.15
58 0.15
59 0.37
6 -0.62
60 0.15
61 0.37
62 0.15
63 0.15
64 0.15
65 0.15
66 0.15
67 0.15
68 0.15
69 0.15
7 0.27
70 0.15
8 0.41
9 0.14

> <PUBCHEM_EFFECTIVE_ROTOR_COUNT>
9.8

> <PUBCHEM_PHARMACOPHORE_FEATURES>
12
1 1 acceptor
1 2 acceptor
1 3 cation
1 4 donor
1 5 donor
1 6 acceptor
6 10 12 14 15 17 18 rings
6 16 19 20 21 22 23 rings
6 25 26 27 28 33 35 rings
6 3 7 8 9 10 12 rings
6 30 34 37 38 39 40 rings
6 6 29 30 32 34 36 rings

> <PUBCHEM_HEAVY_ATOM_COUNT>
40

> <PUBCHEM_ATOM_DEF_STEREO_COUNT>
0

> <PUBCHEM_ATOM_UDEF_STEREO_COUNT>
0

> <PUBCHEM_BOND_DEF_STEREO_COUNT>
0

> <PUBCHEM_BOND_UDEF_STEREO_COUNT>
0

> <PUBCHEM_ISOTOPIC_ATOM_COUNT>
0

> <PUBCHEM_COMPONENT_COUNT>
1

> <PUBCHEM_CACTVS_TAUTO_COUNT>
7

> <PUBCHEM_CONFORMER_ID>
00F3620F00000001

> <PUBCHEM_MMFF94_ENERGY>
129.5834

> <PUBCHEM_FEATURE_SELFOVERLAP>
60.953

> <PUBCHEM_SHAPE_FINGERPRINT>
10050765 1 18267302230570863328
10483366 6 18411416219843844194
10864689 126 18342171167970453840
11135926 11 18335696092834596837
117089 54 17757276255065132082
11763389 116 18342179947126608718
12522641 33 18337389314876752149
13974486 27 17477490802630321446
14040222 383 18412824686007533529
14444916 359 18412549786863428313
15230672 131 18410006620214411882
15297060 5 18343021073399720115
15320295 44 18045509857259321420
15406563 228 18188209913408144180
15419009 47 18340486780597079498
15439362 3 18121779423225475841
15444296 7 17895202086435215548
15538507 32 18124317103855661150
15773879 343 18336274431888149638
15781502 589 18270965627326657254
15890870 6 18410572856292509543
15927050 60 18341887477623944463
16992727 255 18408888442959317792
20609170 92 18042678400929153077
21026386 114 18262237700226054890
21133665 82 18410857651121100326
23516275 137 18118701923694304539
4017518 198 18411976941505421293
4440575 13 18261383405508335954
5085150 59 18343861113506242050
5265222 85 18410293648858759897
57676310 188 18336546010463300427
58902169 19 17822299011264306316
99344 41 18409450246156470974

> <PUBCHEM_SHAPE_MULTIPOLES>
791.52
26.97
7.09
0.93
57.54
9.77
-0.15
-11.17
3.67
-10.62
0.86
0.07
-0.46
-0.51

> <PUBCHEM_SHAPE_SELFOVERLAP>
1750.469

> <PUBCHEM_SHAPE_VOLUME>
420.1

> <PUBCHEM_COORDINATE_TYPE>
2
5
10

$$$$