5770
  -OEChem-03242010103D

 84 89  0     1  0  0  0  0  0999 V2000
   -1.5548    2.9755   -0.6328 O   0  0  0  0  0  0  0  0  0  0  0  0
   -2.7694    0.4039   -0.4922 O   0  0  0  0  0  0  0  0  0  0  0  0
    2.5812    3.2462   -0.3882 O   0  0  0  0  0  0  0  0  0  0  0  0
    0.7559    3.6875    0.9574 O   0  0  0  0  0  0  0  0  0  0  0  0
   -3.5769   -0.2662   -2.5412 O   0  0  0  0  0  0  0  0  0  0  0  0
    9.6070    0.5421    0.2309 O   0  0  0  0  0  0  0  0  0  0  0  0
   -8.5980   -0.1021   -1.3287 O   0  0  0  0  0  0  0  0  0  0  0  0
   -6.2176   -1.1014    2.7050 O   0  0  0  0  0  0  0  0  0  0  0  0
   -8.6153   -0.7853    1.3552 O   0  0  0  0  0  0  0  0  0  0  0  0
    1.8435   -2.1828    0.0356 N   0  0  1  0  0  0  0  0  0  0  0  0
    4.7974   -0.0243    0.9147 N   0  0  0  0  0  0  0  0  0  0  0  0
    1.4736    0.6751   -0.6418 C   0  0  2  0  0  0  0  0  0  0  0  0
    0.7838   -0.4496   -1.4382 C   0  0  1  0  0  0  0  0  0  0  0  0
    1.7371    0.2063    0.8031 C   0  0  0  0  0  0  0  0  0  0  0  0
    0.6452    1.9741   -0.7355 C   0  0  1  0  0  0  0  0  0  0  0  0
    2.4838   -1.1362    0.8797 C   0  0  2  0  0  0  0  0  0  0  0  0
    1.6021   -1.7463   -1.3483 C   0  0  0  0  0  0  0  0  0  0  0  0
   -0.6700   -0.6591   -0.9875 C   0  0  0  0  0  0  0  0  0  0  0  0
   -0.8173    1.7912   -0.3105 C   0  0  2  0  0  0  0  0  0  0  0  0
   -1.4803    0.6331   -1.0620 C   0  0  2  0  0  0  0  0  0  0  0  0
    3.9567   -1.0529    0.5959 C   0  0  0  0  0  0  0  0  0  0  0  0
    2.6213   -3.4462    0.0720 C   0  0  0  0  0  0  0  0  0  0  0  0
    4.7063   -2.0592    0.0204 C   0  0  0  0  0  0  0  0  0  0  0  0
    4.0793   -3.3311   -0.4388 C   0  0  0  0  0  0  0  0  0  0  0  0
    1.3046    3.0677    0.0563 C   0  0  0  0  0  0  0  0  0  0  0  0
    6.0538   -1.6127   -0.0429 C   0  0  0  0  0  0  0  0  0  0  0  0
    6.0831   -0.3340    0.5236 C   0  0  0  0  0  0  0  0  0  0  0  0
   -2.7520    3.0530    0.1217 C   0  0  0  0  0  0  0  0  0  0  0  0
    7.2558   -2.1673   -0.5261 C   0  0  0  0  0  0  0  0  0  0  0  0
   -3.7237   -0.0456   -1.3490 C   0  0  0  0  0  0  0  0  0  0  0  0
    7.2604    0.4152    0.6313 C   0  0  0  0  0  0  0  0  0  0  0  0
    8.4394   -1.4275   -0.4257 C   0  0  0  0  0  0  0  0  0  0  0  0
    8.4393   -0.1562    0.1444 C   0  0  0  0  0  0  0  0  0  0  0  0
    3.3292    4.2648    0.2832 C   0  0  0  0  0  0  0  0  0  0  0  0
   -5.0117   -0.2420   -0.6372 C   0  0  0  0  0  0  0  0  0  0  0  0
   -5.0164   -0.5851    0.7149 C   0  0  0  0  0  0  0  0  0  0  0  0
   -6.2174   -0.0809   -1.3198 C   0  0  0  0  0  0  0  0  0  0  0  0
   -7.4276   -0.2628   -0.6505 C   0  0  0  0  0  0  0  0  0  0  0  0
   -6.2266   -0.7669    1.3843 C   0  0  0  0  0  0  0  0  0  0  0  0
    9.5441    1.8371    0.8240 C   0  0  0  0  0  0  0  0  0  0  0  0
   -7.4322   -0.6057    0.7016 C   0  0  0  0  0  0  0  0  0  0  0  0
   -9.1430   -1.2571   -1.9637 C   0  0  0  0  0  0  0  0  0  0  0  0
   -4.9429   -1.2468    3.3279 C   0  0  0  0  0  0  0  0  0  0  0  0
   -9.1910    0.3608    1.9776 C   0  0  0  0  0  0  0  0  0  0  0  0
    2.4508    0.8563   -1.1111 H   0  0  0  0  0  0  0  0  0  0  0  0
    0.7595   -0.1515   -2.4960 H   0  0  0  0  0  0  0  0  0  0  0  0
    2.2881    0.9746    1.3570 H   0  0  0  0  0  0  0  0  0  0  0  0
    0.7838    0.0927    1.3341 H   0  0  0  0  0  0  0  0  0  0  0  0
    0.6443    2.3244   -1.7784 H   0  0  0  0  0  0  0  0  0  0  0  0
    2.3975   -1.4731    1.9230 H   0  0  0  0  0  0  0  0  0  0  0  0
    2.5440   -1.5895   -1.8884 H   0  0  0  0  0  0  0  0  0  0  0  0
    1.0639   -2.5367   -1.8870 H   0  0  0  0  0  0  0  0  0  0  0  0
   -0.7214   -1.0634    0.0311 H   0  0  0  0  0  0  0  0  0  0  0  0
   -1.1441   -1.4221   -1.6182 H   0  0  0  0  0  0  0  0  0  0  0  0
   -0.8601    1.6185    0.7733 H   0  0  0  0  0  0  0  0  0  0  0  0
   -1.5847    0.9381   -2.1129 H   0  0  0  0  0  0  0  0  0  0  0  0
    2.6386   -3.7996    1.1122 H   0  0  0  0  0  0  0  0  0  0  0  0
    2.0969   -4.2282   -0.4908 H   0  0  0  0  0  0  0  0  0  0  0  0
    4.6582   -4.1904   -0.0819 H   0  0  0  0  0  0  0  0  0  0  0  0
    4.0917   -3.3588   -1.5349 H   0  0  0  0  0  0  0  0  0  0  0  0
    4.5276    0.8384    1.3666 H   0  0  0  0  0  0  0  0  0  0  0  0
   -3.5944    2.6708   -0.4593 H   0  0  0  0  0  0  0  0  0  0  0  0
   -2.6950    2.5695    1.1022 H   0  0  0  0  0  0  0  0  0  0  0  0
   -2.9577    4.1143    0.2953 H   0  0  0  0  0  0  0  0  0  0  0  0
    7.2714   -3.1574   -0.9728 H   0  0  0  0  0  0  0  0  0  0  0  0
    7.1968    1.3967    1.0843 H   0  0  0  0  0  0  0  0  0  0  0  0
    9.3660   -1.8569   -0.7989 H   0  0  0  0  0  0  0  0  0  0  0  0
    2.8443    5.2374    0.1561 H   0  0  0  0  0  0  0  0  0  0  0  0
    3.4334    4.0194    1.3444 H   0  0  0  0  0  0  0  0  0  0  0  0
    4.3249    4.3069   -0.1662 H   0  0  0  0  0  0  0  0  0  0  0  0
   -4.0571   -0.7167    1.2025 H   0  0  0  0  0  0  0  0  0  0  0  0
   -6.2232    0.1906   -2.3727 H   0  0  0  0  0  0  0  0  0  0  0  0
    8.9173    2.5189    0.2391 H   0  0  0  0  0  0  0  0  0  0  0  0
    9.2361    1.7857    1.8739 H   0  0  0  0  0  0  0  0  0  0  0  0
   10.5591    2.2480    0.8103 H   0  0  0  0  0  0  0  0  0  0  0  0
   -8.4523   -1.6394   -2.7221 H   0  0  0  0  0  0  0  0  0  0  0  0
   -9.3604   -2.0362   -1.2263 H   0  0  0  0  0  0  0  0  0  0  0  0
  -10.0770   -0.9697   -2.4543 H   0  0  0  0  0  0  0  0  0  0  0  0
   -4.3709   -2.0722    2.8903 H   0  0  0  0  0  0  0  0  0  0  0  0
   -4.3840   -0.3047    3.3308 H   0  0  0  0  0  0  0  0  0  0  0  0
   -5.1253   -1.5091    4.3753 H   0  0  0  0  0  0  0  0  0  0  0  0
  -10.1259    0.0571    2.4565 H   0  0  0  0  0  0  0  0  0  0  0  0
   -9.4139    1.1321    1.2337 H   0  0  0  0  0  0  0  0  0  0  0  0
   -8.5199    0.7614    2.7439 H   0  0  0  0  0  0  0  0  0  0  0  0
  1 19  1  0  0  0  0
  1 28  1  0  0  0  0
  2 20  1  0  0  0  0
  2 30  1  0  0  0  0
  3 25  1  0  0  0  0
  3 34  1  0  0  0  0
  4 25  2  0  0  0  0
  5 30  2  0  0  0  0
  6 33  1  0  0  0  0
  6 40  1  0  0  0  0
  7 38  1  0  0  0  0
  7 42  1  0  0  0  0
  8 39  1  0  0  0  0
  8 43  1  0  0  0  0
  9 41  1  0  0  0  0
  9 44  1  0  0  0  0
 10 16  1  0  0  0  0
 10 17  1  0  0  0  0
 10 22  1  0  0  0  0
 11 21  1  0  0  0  0
 11 27  1  0  0  0  0
 11 61  1  0  0  0  0
 12 13  1  0  0  0  0
 12 14  1  0  0  0  0
 12 15  1  0  0  0  0
 12 45  1  0  0  0  0
 13 17  1  0  0  0  0
 13 18  1  0  0  0  0
 13 46  1  0  0  0  0
 14 16  1  0  0  0  0
 14 47  1  0  0  0  0
 14 48  1  0  0  0  0
 15 19  1  0  0  0  0
 15 25  1  0  0  0  0
 15 49  1  0  0  0  0
 16 21  1  0  0  0  0
 16 50  1  0  0  0  0
 17 51  1  0  0  0  0
 17 52  1  0  0  0  0
 18 20  1  0  0  0  0
 18 53  1  0  0  0  0
 18 54  1  0  0  0  0
 19 20  1  0  0  0  0
 19 55  1  0  0  0  0
 20 56  1  0  0  0  0
 21 23  2  0  0  0  0
 22 24  1  0  0  0  0
 22 57  1  0  0  0  0
 22 58  1  0  0  0  0
 23 24  1  0  0  0  0
 23 26  1  0  0  0  0
 24 59  1  0  0  0  0
 24 60  1  0  0  0  0
 26 27  2  0  0  0  0
 26 29  1  0  0  0  0
 27 31  1  0  0  0  0
 28 62  1  0  0  0  0
 28 63  1  0  0  0  0
 28 64  1  0  0  0  0
 29 32  2  0  0  0  0
 29 65  1  0  0  0  0
 30 35  1  0  0  0  0
 31 33  2  0  0  0  0
 31 66  1  0  0  0  0
 32 33  1  0  0  0  0
 32 67  1  0  0  0  0
 34 68  1  0  0  0  0
 34 69  1  0  0  0  0
 34 70  1  0  0  0  0
 35 36  2  0  0  0  0
 35 37  1  0  0  0  0
 36 39  1  0  0  0  0
 36 71  1  0  0  0  0
 37 38  2  0  0  0  0
 37 72  1  0  0  0  0
 38 41  1  0  0  0  0
 39 41  2  0  0  0  0
 40 73  1  0  0  0  0
 40 74  1  0  0  0  0
 40 75  1  0  0  0  0
 42 76  1  0  0  0  0
 42 77  1  0  0  0  0
 42 78  1  0  0  0  0
 43 79  1  0  0  0  0
 43 80  1  0  0  0  0
 43 81  1  0  0  0  0
 44 82  1  0  0  0  0
 44 83  1  0  0  0  0
 44 84  1  0  0  0  0
M  END
> <PUBCHEM_COMPOUND_CID>
5770

> <PUBCHEM_CONFORMER_RMSD>
1.2

> <PUBCHEM_CONFORMER_DIVERSEORDER>
1
33
25
14
17
29
27
13
32
21
16
5
19
20
7
34
31
10
8
24
23
3
28
22
4
26
15
18
11
30
6
12
9
2

> <PUBCHEM_MMFF94_PARTIAL_CHARGES>
45
1 -0.56
10 -0.81
11 0.03
15 0.06
16 0.45
17 0.27
19 0.28
2 -0.43
20 0.28
21 -0.33
22 0.27
23 -0.18
24 0.18
25 0.66
27 -0.15
28 0.28
29 -0.15
3 -0.43
30 0.63
31 -0.15
32 -0.15
33 0.08
34 0.28
35 0.09
36 -0.15
37 -0.15
38 0.08
39 0.08
4 -0.57
40 0.28
41 0.08
42 0.28
43 0.28
44 0.28
5 -0.57
6 -0.36
61 0.27
65 0.15
66 0.15
67 0.15
7 -0.36
71 0.15
72 0.15
8 -0.36
9 -0.36

> <PUBCHEM_EFFECTIVE_ROTOR_COUNT>
11.6

> <PUBCHEM_PHARMACOPHORE_FEATURES>
16
1 1 acceptor
1 10 cation
1 11 cation
1 11 donor
1 4 acceptor
1 5 acceptor
1 6 acceptor
1 7 acceptor
1 8 acceptor
1 9 acceptor
5 11 21 23 26 27 rings
6 10 12 13 14 16 17 rings
6 10 16 21 22 23 24 rings
6 12 13 15 18 19 20 rings
6 26 27 29 31 32 33 rings
6 35 36 37 38 39 41 rings

> <PUBCHEM_HEAVY_ATOM_COUNT>
44

> <PUBCHEM_ATOM_DEF_STEREO_COUNT>
6

> <PUBCHEM_ATOM_UDEF_STEREO_COUNT>
0

> <PUBCHEM_BOND_DEF_STEREO_COUNT>
0

> <PUBCHEM_BOND_UDEF_STEREO_COUNT>
0

> <PUBCHEM_ISOTOPIC_ATOM_COUNT>
0

> <PUBCHEM_COMPONENT_COUNT>
1

> <PUBCHEM_CACTVS_TAUTO_COUNT>
1

> <PUBCHEM_CONFORMER_ID>
0000168A00000001

> <PUBCHEM_MMFF94_ENERGY>
159.9349

> <PUBCHEM_FEATURE_SELFOVERLAP>
81.519

> <PUBCHEM_SHAPE_FINGERPRINT>
10190108 129 18342455924544459274
10391435 84 17821731645382832427
10653451 467 18261394472899896706
10674148 151 15647054859674177341
12373685 5 14201114596791094224
12440605 4 17909830178078643911
12522641 126 18188773993017066100
12522641 24 17489016167760511888
12857493 111 18260269646224201605
13150687 139 9367345937940046848
13383668 251 18267286802646435303
13782708 43 17749962184855332411
13811026 1 18334292063350622405
14856354 85 16415471670935670455
150020 25 17821728321278325566
15131766 46 13540170772940427714
15347591 1 18120365455044266854
15392192 104 17060336327644080071
15444296 7 18335982056505442820
15721738 202 18342453734074508192
15840311 113 17489299828553445696
15927050 60 17908418405659646332
16992787 43 18341328972908829260
19611394 137 18261399957584079738
20105231 36 18201438052498767590
20501277 279 18341889723997257664
21049683 271 18260265248673108380
22149856 69 18271248218666667344
24771293 8 17989489606864107815
25269216 80 14779554513401279777
2747138 104 18334862706096606658
3178227 256 18409731781294372182
335507 130 18343297060072916476
3552219 110 17775006761290224128
394071 54 18273496771132018910
437795 51 18187080685170106484
44426699 60 17096096904582837948
4461854 278 18130792264970148086
5028188 123 16630237113100522526
6691757 9 16343701059104383935
9962374 69 18340193185707781407

> <PUBCHEM_SHAPE_MULTIPOLES>
842.71
29.84
3.64
1.85
9.71
3.12
-0.82
-8.79
-6
-5.54
-0.07
5.27
-0.65
1.29

> <PUBCHEM_SHAPE_SELFOVERLAP>
1833.057

> <PUBCHEM_SHAPE_VOLUME>
455.4

> <PUBCHEM_COORDINATE_TYPE>
2
5
10

$$$$