81
 OpenBabel03292021523D

103105  0  0  1  0  0  0  0  0999 V2000
    6.2975   -1.9440    2.3777 C   0  0  0  0  0  0  0  0  0  0  0  0
    5.8188   -0.8653    3.1852 O   0  0  0  0  0  0  0  0  0  0  0  0
    4.4769   -0.6909    3.1357 C   0  0  0  0  0  0  0  0  0  0  0  0
    3.6965   -1.3466    2.4657 O   0  0  0  0  0  0  0  0  0  0  0  0
    4.1308    0.3535    3.9363 N   0  0  0  0  0  0  0  0  0  0  0  0
    2.7453    0.7593    4.2203 C   0  0  2  0  0  0  0  0  0  0  0  0
    2.1744    1.7842    3.1788 C   0  0  0  0  0  0  0  0  0  0  0  0
    1.1605    2.4484    3.3891 O   0  0  0  0  0  0  0  0  0  0  0  0
    2.8238    1.8750    1.9671 N   0  0  0  0  0  0  0  0  0  0  0  0
    2.5688    2.9822    1.0095 C   0  0  1  0  0  0  0  0  0  0  0  0
    2.8575    4.3590    1.6780 C   0  0  0  0  0  0  0  0  0  0  0  0
    4.2771    4.6546    2.1427 C   0  0  0  0  0  0  0  0  0  0  0  0
    4.7302    5.9834    2.1293 C   0  0  0  0  0  0  0  0  0  0  0  0
    6.0512    6.2927    2.4663 C   0  0  0  0  0  0  0  0  0  0  0  0
    6.9255    5.2887    2.8740 C   0  0  0  0  0  0  0  0  0  0  0  0
    6.4784    3.9773    2.9519 C   0  0  0  0  0  0  0  0  0  0  0  0
    5.1686    3.6694    2.5891 C   0  0  0  0  0  0  0  0  0  0  0  0
    3.3346    2.7285   -0.3304 C   0  0  1  0  0  0  0  0  0  0  0  0
    3.0052    1.3720   -0.7327 O   0  0  0  0  0  0  0  0  0  0  0  0
    3.0141    3.6706   -1.5328 C   0  0  0  0  0  0  0  0  0  0  0  0
    3.3435    5.0960   -1.4619 N   0  0  0  0  0  0  0  0  0  0  0  0
    4.7389    5.4426   -1.1271 C   0  0  0  0  0  0  0  0  0  0  0  0
    5.8187    5.1859   -2.1494 C   0  0  0  0  0  0  0  0  0  0  0  0
    6.0127    6.0613   -3.2185 C   0  0  0  0  0  0  0  0  0  0  0  0
    7.0144    5.8181   -4.1577 C   0  0  0  0  0  0  0  0  0  0  0  0
    7.8673    4.7056   -4.0528 C   0  0  0  0  0  0  0  0  0  0  0  0
    8.8243    4.4124   -5.1339 C   0  0  0  0  0  0  0  0  0  0  0  0
   10.0959    3.8840   -4.9234 C   0  0  0  0  0  0  0  0  0  0  0  0
   10.9055    3.6121   -6.0264 C   0  0  0  0  0  0  0  0  0  0  0  0
   10.4282    3.8674   -7.3062 C   0  0  0  0  0  0  0  0  0  0  0  0
    9.1582    4.3949   -7.4328 C   0  0  0  0  0  0  0  0  0  0  0  0
    8.3591    4.6746   -6.3843 N   0  0  0  0  0  0  0  0  0  0  0  0
    7.7187    3.8775   -2.9293 C   0  0  0  0  0  0  0  0  0  0  0  0
    6.7058    4.1119   -1.9926 C   0  0  0  0  0  0  0  0  0  0  0  0
    2.8435    5.8232   -2.5773 N   0  0  0  0  0  0  0  0  0  0  0  0
    2.4315    7.1434   -2.4117 C   0  0  0  0  0  0  0  0  0  0  0  0
    2.3926    7.7122   -1.3173 O   0  0  0  0  0  0  0  0  0  0  0  0
    1.9548    7.8041   -3.7296 C   0  0  1  0  0  0  0  0  0  0  0  0
    0.5166    7.5979   -3.8448 N   0  0  0  0  0  0  0  0  0  0  0  0
   -0.0224    6.4554   -4.3456 C   0  0  0  0  0  0  0  0  0  0  0  0
    0.6245    5.5053   -4.7609 O   0  0  0  0  0  0  0  0  0  0  0  0
   -1.3708    6.5470   -4.2984 O   0  0  0  0  0  0  0  0  0  0  0  0
   -2.0645    5.4195   -4.8336 C   0  0  0  0  0  0  0  0  0  0  0  0
    2.3438    9.3153   -3.8765 C   0  0  0  0  0  0  0  0  0  0  0  0
    3.8797    9.4551   -3.8691 C   0  0  0  0  0  0  0  0  0  0  0  0
    1.8357    9.8472   -5.2375 C   0  0  0  0  0  0  0  0  0  0  0  0
    1.7604   10.2225   -2.7766 C   0  0  0  0  0  0  0  0  0  0  0  0
    2.6161    1.2556    5.7167 C   0  0  0  0  0  0  0  0  0  0  0  0
    1.1548    1.5761    6.1003 C   0  0  0  0  0  0  0  0  0  0  0  0
    3.0845    0.1392    6.6809 C   0  0  0  0  0  0  0  0  0  0  0  0
    3.4708    2.5128    5.9884 C   0  0  0  0  0  0  0  0  0  0  0  0
    7.3758   -2.0365    2.5379 H   0  0  0  0  0  0  0  0  0  0  0  0
    6.1225   -1.7301    1.3194 H   0  0  0  0  0  0  0  0  0  0  0  0
    5.8264   -2.8894    2.6665 H   0  0  0  0  0  0  0  0  0  0  0  0
    4.9001    0.8187    4.3965 H   0  0  0  0  0  0  0  0  0  0  0  0
    2.1224   -0.1375    4.1007 H   0  0  0  0  0  0  0  0  0  0  0  0
    3.2977    1.0498    1.6127 H   0  0  0  0  0  0  0  0  0  0  0  0
    1.4926    2.9294    0.7945 H   0  0  0  0  0  0  0  0  0  0  0  0
    2.2143    4.4866    2.5570 H   0  0  0  0  0  0  0  0  0  0  0  0
    2.5339    5.1447    0.9859 H   0  0  0  0  0  0  0  0  0  0  0  0
    4.0690    6.7828    1.7955 H   0  0  0  0  0  0  0  0  0  0  0  0
    6.3999    7.3192    2.3964 H   0  0  0  0  0  0  0  0  0  0  0  0
    7.9531    5.5263    3.1321 H   0  0  0  0  0  0  0  0  0  0  0  0
    7.1450    3.1856    3.2829 H   0  0  0  0  0  0  0  0  0  0  0  0
    4.8820    2.6303    2.6532 H   0  0  0  0  0  0  0  0  0  0  0  0
    4.4125    2.7133   -0.1479 H   0  0  0  0  0  0  0  0  0  0  0  0
    3.2307    1.2593   -1.6721 H   0  0  0  0  0  0  0  0  0  0  0  0
    1.9350    3.5779   -1.7243 H   0  0  0  0  0  0  0  0  0  0  0  0
    3.4896    3.2473   -2.4291 H   0  0  0  0  0  0  0  0  0  0  0  0
    5.0324    4.9021   -0.2322 H   0  0  0  0  0  0  0  0  0  0  0  0
    4.7868    6.5020   -0.8414 H   0  0  0  0  0  0  0  0  0  0  0  0
    5.3892    6.9421   -3.3282 H   0  0  0  0  0  0  0  0  0  0  0  0
    7.1239    6.5012   -4.9989 H   0  0  0  0  0  0  0  0  0  0  0  0
   10.4666    3.6929   -3.9220 H   0  0  0  0  0  0  0  0  0  0  0  0
   11.9020    3.2030   -5.8875 H   0  0  0  0  0  0  0  0  0  0  0  0
   11.0296    3.6627   -8.1843 H   0  0  0  0  0  0  0  0  0  0  0  0
    8.7302    4.6130   -8.4066 H   0  0  0  0  0  0  0  0  0  0  0  0
    8.3667    3.0164   -2.7845 H   0  0  0  0  0  0  0  0  0  0  0  0
    6.6206    3.4519   -1.1316 H   0  0  0  0  0  0  0  0  0  0  0  0
    2.5600    5.3270   -3.4233 H   0  0  0  0  0  0  0  0  0  0  0  0
    2.4310    7.2609   -4.5570 H   0  0  0  0  0  0  0  0  0  0  0  0
   -0.1276    8.2026   -3.3530 H   0  0  0  0  0  0  0  0  0  0  0  0
   -3.1378    5.6209   -4.7657 H   0  0  0  0  0  0  0  0  0  0  0  0
   -1.8424    4.5216   -4.2497 H   0  0  0  0  0  0  0  0  0  0  0  0
   -1.8087    5.2731   -5.8878 H   0  0  0  0  0  0  0  0  0  0  0  0
    4.3334    8.8668   -4.6750 H   0  0  0  0  0  0  0  0  0  0  0  0
    4.3110    9.1189   -2.9209 H   0  0  0  0  0  0  0  0  0  0  0  0
    4.1834   10.4983   -4.0130 H   0  0  0  0  0  0  0  0  0  0  0  0
    2.2247    9.2497   -6.0693 H   0  0  0  0  0  0  0  0  0  0  0  0
    2.1526   10.8845   -5.3986 H   0  0  0  0  0  0  0  0  0  0  0  0
    0.7417    9.8316   -5.2935 H   0  0  0  0  0  0  0  0  0  0  0  0
    2.1663    9.9944   -1.7882 H   0  0  0  0  0  0  0  0  0  0  0  0
    0.6700   10.1482   -2.7229 H   0  0  0  0  0  0  0  0  0  0  0  0
    2.0046   11.2738   -2.9709 H   0  0  0  0  0  0  0  0  0  0  0  0
    0.4797    0.7716    5.7916 H   0  0  0  0  0  0  0  0  0  0  0  0
    0.8046    2.5140    5.6608 H   0  0  0  0  0  0  0  0  0  0  0  0
    1.0488    1.7027    7.1844 H   0  0  0  0  0  0  0  0  0  0  0  0
    2.5220   -0.7856    6.5120 H   0  0  0  0  0  0  0  0  0  0  0  0
    2.9311    0.4316    7.7272 H   0  0  0  0  0  0  0  0  0  0  0  0
    4.1502   -0.0839    6.5668 H   0  0  0  0  0  0  0  0  0  0  0  0
    3.2006    3.3377    5.3216 H   0  0  0  0  0  0  0  0  0  0  0  0
    4.5414    2.3181    5.8669 H   0  0  0  0  0  0  0  0  0  0  0  0
    3.3293    2.8651    7.0178 H   0  0  0  0  0  0  0  0  0  0  0  0
  1  2  1  0  0  0  0
  1 52  1  0  0  0  0
  1 53  1  0  0  0  0
  1 54  1  0  0  0  0
  2  3  1  0  0  0  0
  3  4  2  0  0  0  0
  3  5  1  0  0  0  0
  5 55  1  0  0  0  0
  6 48  1  0  0  0  0
  6  7  1  0  0  0  0
  6  5  1  0  0  0  0
  6 56  1  6  0  0  0
  7  8  2  0  0  0  0
  7  9  1  0  0  0  0
  9 10  1  0  0  0  0
  9 57  1  0  0  0  0
 10 11  1  0  0  0  0
 10 18  1  0  0  0  0
 10 58  1  6  0  0  0
 11 12  1  0  0  0  0
 11 59  1  0  0  0  0
 11 60  1  0  0  0  0
 12 13  1  0  0  0  0
 12 17  2  0  0  0  0
 13 14  2  0  0  0  0
 13 61  1  0  0  0  0
 14 15  1  0  0  0  0
 14 62  1  0  0  0  0
 15 16  2  0  0  0  0
 15 63  1  0  0  0  0
 16 17  1  0  0  0  0
 16 64  1  0  0  0  0
 17 65  1  0  0  0  0
 18 19  1  0  0  0  0
 18 20  1  0  0  0  0
 18 66  1  1  0  0  0
 19 67  1  0  0  0  0
 20 21  1  0  0  0  0
 20 68  1  0  0  0  0
 20 69  1  0  0  0  0
 21 22  1  0  0  0  0
 21 35  1  0  0  0  0
 22 23  1  0  0  0  0
 22 70  1  0  0  0  0
 22 71  1  0  0  0  0
 23 24  1  0  0  0  0
 23 34  2  0  0  0  0
 24 25  2  0  0  0  0
 24 72  1  0  0  0  0
 25 26  1  0  0  0  0
 25 73  1  0  0  0  0
 26 27  1  0  0  0  0
 26 33  2  0  0  0  0
 27 28  1  0  0  0  0
 27 32  2  0  0  0  0
 28 29  2  0  0  0  0
 28 74  1  0  0  0  0
 29 30  1  0  0  0  0
 29 75  1  0  0  0  0
 30 31  2  0  0  0  0
 30 76  1  0  0  0  0
 31 32  1  0  0  0  0
 31 77  1  0  0  0  0
 33 34  1  0  0  0  0
 33 78  1  0  0  0  0
 34 79  1  0  0  0  0
 35 36  1  0  0  0  0
 35 80  1  0  0  0  0
 36 37  2  0  0  0  0
 36 38  1  0  0  0  0
 38 39  1  0  0  0  0
 38 44  1  0  0  0  0
 38 81  1  6  0  0  0
 39 40  1  0  0  0  0
 39 82  1  0  0  0  0
 40 41  2  0  0  0  0
 40 42  1  0  0  0  0
 42 43  1  0  0  0  0
 43 83  1  0  0  0  0
 43 84  1  0  0  0  0
 43 85  1  0  0  0  0
 44 45  1  0  0  0  0
 44 46  1  0  0  0  0
 44 47  1  0  0  0  0
 45 86  1  0  0  0  0
 45 87  1  0  0  0  0
 45 88  1  0  0  0  0
 46 89  1  0  0  0  0
 46 90  1  0  0  0  0
 46 91  1  0  0  0  0
 47 92  1  0  0  0  0
 47 93  1  0  0  0  0
 47 94  1  0  0  0  0
 48 49  1  0  0  0  0
 48 50  1  0  0  0  0
 48 51  1  0  0  0  0
 49 95  1  0  0  0  0
 49 96  1  0  0  0  0
 49 97  1  0  0  0  0
 50 98  1  0  0  0  0
 50 99  1  0  0  0  0
 50100  1  0  0  0  0
 51101  1  0  0  0  0
 51102  1  0  0  0  0
 51103  1  0  0  0  0
M  END
>  <Energy>
101.917

$$$$