56946833
  -OEChem-03242010103D

 49 51  0     0  0  0  0  0  0999 V2000
   -4.6814    2.2973   -0.3837 O   0  0  0  0  0  0  0  0  0  0  0  0
   -5.7690   -2.3041    0.3806 O   0  0  0  0  0  0  0  0  0  0  0  0
   -6.5696    0.3351    0.1210 O   0  0  0  0  0  0  0  0  0  0  0  0
   -0.8502   -2.1764   -0.7358 O   0  0  0  0  0  0  0  0  0  0  0  0
    1.0972    3.1103   -0.0935 O   0  5  0  0  0  0  0  0  0  0  0  0
    1.0713    2.3853    1.9784 O   0  0  0  0  0  0  0  0  0  0  0  0
   -0.2178   -0.0212   -0.0427 N   0  0  0  0  0  0  0  0  0  0  0  0
    1.3424    2.2311    0.7649 N   0  3  0  0  0  0  0  0  0  0  0  0
    7.3925   -1.7098    0.1291 N   0  0  0  0  0  0  0  0  0  0  0  0
    1.1795   -0.0805   -0.0461 C   0  0  0  0  0  0  0  0  0  0  0  0
    3.9638   -0.2549   -0.0716 C   0  0  0  0  0  0  0  0  0  0  0  0
   -2.5578   -0.6744   -0.2459 C   0  0  0  0  0  0  0  0  0  0  0  0
    1.9504    1.0136    0.3465 C   0  0  0  0  0  0  0  0  0  0  0  0
    3.3426    0.9263    0.3338 C   0  0  0  0  0  0  0  0  0  0  0  0
    1.8007   -1.2618   -0.4513 C   0  0  0  0  0  0  0  0  0  0  0  0
    3.1928   -1.3491   -0.4643 C   0  0  0  0  0  0  0  0  0  0  0  0
   -1.1218   -1.0360   -0.3758 C   0  0  0  0  0  0  0  0  0  0  0  0
   -3.5058   -1.6656    0.0087 C   0  0  0  0  0  0  0  0  0  0  0  0
   -2.9572    0.6556   -0.3773 C   0  0  0  0  0  0  0  0  0  0  0  0
    5.4075   -0.3463   -0.0852 C   0  0  0  0  0  0  0  0  0  0  0  0
   -4.3046    0.9945   -0.2542 C   0  0  0  0  0  0  0  0  0  0  0  0
   -4.8532   -1.3266    0.1316 C   0  0  0  0  0  0  0  0  0  0  0  0
   -5.2526    0.0034    0.0001 C   0  0  0  0  0  0  0  0  0  0  0  0
    6.1949    0.7769   -0.3134 C   0  0  0  0  0  0  0  0  0  0  0  0
    6.0493   -1.5556    0.1287 C   0  0  0  0  0  0  0  0  0  0  0  0
    7.5803    0.6581   -0.3206 C   0  0  0  0  0  0  0  0  0  0  0  0
    8.1249   -0.5960   -0.0961 C   0  0  0  0  0  0  0  0  0  0  0  0
   -3.6498    3.2474   -0.6430 C   0  0  0  0  0  0  0  0  0  0  0  0
   -6.0472   -2.5980    1.7483 C   0  0  0  0  0  0  0  0  0  0  0  0
   -7.3519    0.3215   -1.0709 C   0  0  0  0  0  0  0  0  0  0  0  0
    3.9175    1.7858    0.6716 H   0  0  0  0  0  0  0  0  0  0  0  0
    1.2842   -2.1503   -0.7830 H   0  0  0  0  0  0  0  0  0  0  0  0
   -0.5971    0.8535    0.3043 H   0  0  0  0  0  0  0  0  0  0  0  0
    3.6359   -2.2777   -0.8143 H   0  0  0  0  0  0  0  0  0  0  0  0
   -3.2078   -2.7056    0.1181 H   0  0  0  0  0  0  0  0  0  0  0  0
   -2.2099    1.3970   -0.6282 H   0  0  0  0  0  0  0  0  0  0  0  0
    5.7714    1.7562   -0.5176 H   0  0  0  0  0  0  0  0  0  0  0  0
    5.5169   -2.4771    0.3422 H   0  0  0  0  0  0  0  0  0  0  0  0
    8.2141    1.5184   -0.5028 H   0  0  0  0  0  0  0  0  0  0  0  0
    9.2000   -0.7422   -0.0932 H   0  0  0  0  0  0  0  0  0  0  0  0
   -2.9266    3.2964    0.1784 H   0  0  0  0  0  0  0  0  0  0  0  0
   -3.1727    3.0711   -1.6132 H   0  0  0  0  0  0  0  0  0  0  0  0
   -4.1274    4.2312   -0.7012 H   0  0  0  0  0  0  0  0  0  0  0  0
   -5.1440   -2.9512    2.2559 H   0  0  0  0  0  0  0  0  0  0  0  0
   -6.4449   -1.7154    2.2592 H   0  0  0  0  0  0  0  0  0  0  0  0
   -6.8000   -3.3903    1.7821 H   0  0  0  0  0  0  0  0  0  0  0  0
   -8.3749    0.6082   -0.8123 H   0  0  0  0  0  0  0  0  0  0  0  0
   -7.3702   -0.6817   -1.5084 H   0  0  0  0  0  0  0  0  0  0  0  0
   -6.9604    1.0406   -1.7974 H   0  0  0  0  0  0  0  0  0  0  0  0
  1 21  1  0  0  0  0
  1 28  1  0  0  0  0
  2 22  1  0  0  0  0
  2 29  1  0  0  0  0
  3 23  1  0  0  0  0
  3 30  1  0  0  0  0
  4 17  2  0  0  0  0
  5  8  1  0  0  0  0
  6  8  2  0  0  0  0
  7 10  1  0  0  0  0
  7 17  1  0  0  0  0
  7 33  1  0  0  0  0
  8 13  1  0  0  0  0
  9 25  1  0  0  0  0
  9 27  2  0  0  0  0
 10 13  2  0  0  0  0
 10 15  1  0  0  0  0
 11 14  2  0  0  0  0
 11 16  1  0  0  0  0
 11 20  1  0  0  0  0
 12 17  1  0  0  0  0
 12 18  2  0  0  0  0
 12 19  1  0  0  0  0
 13 14  1  0  0  0  0
 14 31  1  0  0  0  0
 15 16  2  0  0  0  0
 15 32  1  0  0  0  0
 16 34  1  0  0  0  0
 18 22  1  0  0  0  0
 18 35  1  0  0  0  0
 19 21  2  0  0  0  0
 19 36  1  0  0  0  0
 20 24  1  0  0  0  0
 20 25  2  0  0  0  0
 21 23  1  0  0  0  0
 22 23  2  0  0  0  0
 24 26  2  0  0  0  0
 24 37  1  0  0  0  0
 25 38  1  0  0  0  0
 26 27  1  0  0  0  0
 26 39  1  0  0  0  0
 27 40  1  0  0  0  0
 28 41  1  0  0  0  0
 28 42  1  0  0  0  0
 28 43  1  0  0  0  0
 29 44  1  0  0  0  0
 29 45  1  0  0  0  0
 29 46  1  0  0  0  0
 30 47  1  0  0  0  0
 30 48  1  0  0  0  0
 30 49  1  0  0  0  0
M  CHG  2   5  -1   8   1
M  END
> <PUBCHEM_COMPOUND_CID>
56946833

> <PUBCHEM_CONFORMER_RMSD>
1

> <PUBCHEM_CONFORMER_DIVERSEORDER>
1
8
4
11
9
5
13
10
7
2
6
3
12

> <PUBCHEM_MMFF94_PARTIAL_CHARGES>
38
1 -0.36
10 0.12
12 0.09
13 0.13
14 -0.15
15 -0.15
16 -0.15
17 0.54
18 -0.15
19 -0.15
2 -0.36
21 0.08
22 0.08
23 0.08
24 -0.15
25 0.16
26 -0.15
27 0.16
28 0.28
29 0.28
3 -0.36
30 0.28
31 0.15
32 0.15
33 0.37
34 0.15
35 0.15
36 0.15
37 0.15
38 0.15
39 0.15
4 -0.57
40 0.15
5 -0.52
6 -0.52
7 -0.55
8 0.91
9 -0.62

> <PUBCHEM_EFFECTIVE_ROTOR_COUNT>
8

> <PUBCHEM_PHARMACOPHORE_FEATURES>
12
1 1 acceptor
1 2 acceptor
1 3 acceptor
1 4 acceptor
1 5 acceptor
1 5 anion
1 6 acceptor
1 7 donor
1 9 acceptor
6 10 11 13 14 15 16 rings
6 12 18 19 21 22 23 rings
6 9 20 24 25 26 27 rings

> <PUBCHEM_HEAVY_ATOM_COUNT>
30

> <PUBCHEM_ATOM_DEF_STEREO_COUNT>
0

> <PUBCHEM_ATOM_UDEF_STEREO_COUNT>
0

> <PUBCHEM_BOND_DEF_STEREO_COUNT>
0

> <PUBCHEM_BOND_UDEF_STEREO_COUNT>
0

> <PUBCHEM_ISOTOPIC_ATOM_COUNT>
0

> <PUBCHEM_COMPONENT_COUNT>
1

> <PUBCHEM_CACTVS_TAUTO_COUNT>
2

> <PUBCHEM_CONFORMER_ID>
0364F09100000001

> <PUBCHEM_MMFF94_ENERGY>
137.5226

> <PUBCHEM_FEATURE_SELFOVERLAP>
60.992

> <PUBCHEM_SHAPE_FINGERPRINT>
10050765 1 18052540964004818286
100830 39 18335983077684655380
10299344 5 18113056034950231294
10319926 262 18337660997148407627
10411042 1 18119251903875658435
11315181 36 18113339713192047151
11578080 2 16734931352067452199
11646440 116 17775009002883181826
11719270 70 18201998794881248374
12166972 35 18334298699460372540
12236239 1 18260267435111583054
12516196 113 18131350821867317736
12645989 146 18200026373899325207
13402501 40 18413105048508748773
13685833 64 18412266159955056538
14251764 18 18342175557321054116
14933364 13 18408886239778413846
15183329 4 18409164390075858650
15849732 13 17561362894152660580
18393751 57 16043343360943293057
18608769 82 18336549403983622187
19611394 137 18042980946366077499
20721686 56 18339356478839258553
21033648 29 17845918680837704705
21267235 1 18341900705806587806
21315759 40 17022621979278213210
21315763 28 18335138692100033142
21792934 111 18272640239617208920
21792961 116 18271807883154820646
23559900 14 18337103570929181753
3004659 81 18334294254649041470
3178227 256 18340780328568779467
335352 9 18343299284006197710
350125 39 18411982485759827085
4073 2 17968101945093117898
4098825 35 18333450945782736936
6009941 240 17894916230597325858
999808 66 18187374259027953755

> <PUBCHEM_SHAPE_MULTIPOLES>
567.23
22.02
2.84
0.94
14.01
1.37
0.33
-5.88
-0.88
-3.06
0.48
-0.77
0.03
1.74

> <PUBCHEM_SHAPE_SELFOVERLAP>
1232.272

> <PUBCHEM_SHAPE_VOLUME>
309.1

> <PUBCHEM_COORDINATE_TYPE>
2
5
10

$$$$