56946724
  -OEChem-03242010103D

 65 66  0     1  0  0  0  0  0999 V2000
   -6.8240   -1.4712   -0.5915 O   0  0  0  0  0  0  0  0  0  0  0  0
   -6.9811    0.3785   -2.6600 O   0  0  0  0  0  0  0  0  0  0  0  0
    4.9643    2.5299   -0.4217 O   0  0  0  0  0  0  0  0  0  0  0  0
    7.2566    1.0869   -1.0451 O   0  0  0  0  0  0  0  0  0  0  0  0
    0.5643   -2.6929    0.3621 N   0  0  2  0  0  0  0  0  0  0  0  0
   -0.8184    2.4043    0.4029 N   0  0  0  0  0  0  0  0  0  0  0  0
   -2.5643    0.4809    0.9400 C   0  0  1  0  0  0  0  0  0  0  0  0
   -3.1046    0.7024    2.4167 C   0  0  0  0  0  0  0  0  0  0  0  0
   -1.7816   -0.8787    0.8554 C   0  0  0  0  0  0  0  0  0  0  0  0
   -1.2179   -1.2255   -0.5387 C   0  0  0  0  0  0  0  0  0  0  0  0
   -3.7641    0.4498   -0.0361 C   0  0  0  0  0  0  0  0  0  0  0  0
   -0.5441   -2.6004   -0.5803 C   0  0  0  0  0  0  0  0  0  0  0  0
   -3.8688    2.0223    2.6190 C   0  0  0  0  0  0  0  0  0  0  0  0
   -2.0006    0.6106    3.4872 C   0  0  0  0  0  0  0  0  0  0  0  0
   -1.5870    1.5642    0.6294 C   0  0  0  0  0  0  0  0  0  0  0  0
   -4.7672   -0.5065    0.1218 C   0  0  0  0  0  0  0  0  0  0  0  0
   -3.8433    1.3788   -1.0736 C   0  0  0  0  0  0  0  0  0  0  0  0
    1.7518   -2.0225   -0.1707 C   0  0  0  0  0  0  0  0  0  0  0  0
    2.6808   -1.5747    0.9580 C   0  0  0  0  0  0  0  0  0  0  0  0
    0.8661   -4.0926    0.6675 C   0  0  0  0  0  0  0  0  0  0  0  0
   -5.8495   -0.5338   -0.7576 C   0  0  0  0  0  0  0  0  0  0  0  0
   -4.9256    1.3513   -1.9532 C   0  0  0  0  0  0  0  0  0  0  0  0
   -5.9287    0.3951   -1.7952 C   0  0  0  0  0  0  0  0  0  0  0  0
    3.8981   -0.8628    0.4237 C   0  0  0  0  0  0  0  0  0  0  0  0
    3.8737    0.5200    0.2421 C   0  0  0  0  0  0  0  0  0  0  0  0
    5.0487   -1.5870    0.1118 C   0  0  0  0  0  0  0  0  0  0  0  0
    4.9999    1.1787   -0.2511 C   0  0  0  0  0  0  0  0  0  0  0  0
    6.1749   -0.9282   -0.3817 C   0  0  0  0  0  0  0  0  0  0  0  0
    6.1505    0.4547   -0.5631 C   0  0  0  0  0  0  0  0  0  0  0  0
    3.7497    3.1944   -0.0789 C   0  0  0  0  0  0  0  0  0  0  0  0
    8.3912    0.2740   -1.3391 C   0  0  0  0  0  0  0  0  0  0  0  0
   -3.8120   -0.1030    2.6547 H   0  0  0  0  0  0  0  0  0  0  0  0
   -0.9292   -0.8459    1.5444 H   0  0  0  0  0  0  0  0  0  0  0  0
   -2.4220   -1.7024    1.1954 H   0  0  0  0  0  0  0  0  0  0  0  0
   -2.0347   -1.2453   -1.2696 H   0  0  0  0  0  0  0  0  0  0  0  0
   -0.5304   -0.4439   -0.8764 H   0  0  0  0  0  0  0  0  0  0  0  0
   -0.2231   -2.8328   -1.6042 H   0  0  0  0  0  0  0  0  0  0  0  0
   -1.3163   -3.3394   -0.3271 H   0  0  0  0  0  0  0  0  0  0  0  0
   -2.4151    0.8165    4.4810 H   0  0  0  0  0  0  0  0  0  0  0  0
   -4.7199    2.1054    1.9368 H   0  0  0  0  0  0  0  0  0  0  0  0
   -4.2681    2.0826    3.6377 H   0  0  0  0  0  0  0  0  0  0  0  0
   -3.2218    2.8921    2.4666 H   0  0  0  0  0  0  0  0  0  0  0  0
   -1.5679   -0.3924    3.5382 H   0  0  0  0  0  0  0  0  0  0  0  0
   -1.1959    1.3314    3.3143 H   0  0  0  0  0  0  0  0  0  0  0  0
   -4.7149   -1.2397    0.9218 H   0  0  0  0  0  0  0  0  0  0  0  0
   -3.0919    2.1426   -1.2415 H   0  0  0  0  0  0  0  0  0  0  0  0
    2.2836   -2.6631   -0.8878 H   0  0  0  0  0  0  0  0  0  0  0  0
    1.4792   -1.1226   -0.7348 H   0  0  0  0  0  0  0  0  0  0  0  0
    3.0131   -2.4259    1.5644 H   0  0  0  0  0  0  0  0  0  0  0  0
    2.1442   -0.9108    1.6491 H   0  0  0  0  0  0  0  0  0  0  0  0
   -0.0080   -4.5826    1.1118 H   0  0  0  0  0  0  0  0  0  0  0  0
    1.6681   -4.1811    1.4068 H   0  0  0  0  0  0  0  0  0  0  0  0
    1.1556   -4.6582   -0.2259 H   0  0  0  0  0  0  0  0  0  0  0  0
   -4.9754    2.0807   -2.7573 H   0  0  0  0  0  0  0  0  0  0  0  0
    2.9505    1.0285    0.4996 H   0  0  0  0  0  0  0  0  0  0  0  0
    5.0779   -2.6649    0.2476 H   0  0  0  0  0  0  0  0  0  0  0  0
   -6.6031   -2.0268    0.1756 H   0  0  0  0  0  0  0  0  0  0  0  0
   -6.8673    1.0922   -3.3109 H   0  0  0  0  0  0  0  0  0  0  0  0
    7.0322   -1.5546   -0.6026 H   0  0  0  0  0  0  0  0  0  0  0  0
    3.8992    4.2608   -0.2776 H   0  0  0  0  0  0  0  0  0  0  0  0
    3.5246    3.0993    0.9889 H   0  0  0  0  0  0  0  0  0  0  0  0
    2.9176    2.8676   -0.7119 H   0  0  0  0  0  0  0  0  0  0  0  0
    8.7851   -0.2101   -0.4390 H   0  0  0  0  0  0  0  0  0  0  0  0
    8.1774   -0.4433   -2.1389 H   0  0  0  0  0  0  0  0  0  0  0  0
    9.1769    0.9399   -1.7113 H   0  0  0  0  0  0  0  0  0  0  0  0
  1 21  1  0  0  0  0
  1 57  1  0  0  0  0
  2 23  1  0  0  0  0
  2 58  1  0  0  0  0
  3 27  1  0  0  0  0
  3 30  1  0  0  0  0
  4 29  1  0  0  0  0
  4 31  1  0  0  0  0
  5 12  1  0  0  0  0
  5 18  1  0  0  0  0
  5 20  1  0  0  0  0
  6 15  3  0  0  0  0
  7  8  1  0  0  0  0
  7  9  1  0  0  0  0
  7 11  1  0  0  0  0
  7 15  1  0  0  0  0
  8 13  1  0  0  0  0
  8 14  1  0  0  0  0
  8 32  1  0  0  0  0
  9 10  1  0  0  0  0
  9 33  1  0  0  0  0
  9 34  1  0  0  0  0
 10 12  1  0  0  0  0
 10 35  1  0  0  0  0
 10 36  1  0  0  0  0
 11 16  2  0  0  0  0
 11 17  1  0  0  0  0
 12 37  1  0  0  0  0
 12 38  1  0  0  0  0
 13 40  1  0  0  0  0
 13 41  1  0  0  0  0
 13 42  1  0  0  0  0
 14 39  1  0  0  0  0
 14 43  1  0  0  0  0
 14 44  1  0  0  0  0
 16 21  1  0  0  0  0
 16 45  1  0  0  0  0
 17 22  2  0  0  0  0
 17 46  1  0  0  0  0
 18 19  1  0  0  0  0
 18 47  1  0  0  0  0
 18 48  1  0  0  0  0
 19 24  1  0  0  0  0
 19 49  1  0  0  0  0
 19 50  1  0  0  0  0
 20 51  1  0  0  0  0
 20 52  1  0  0  0  0
 20 53  1  0  0  0  0
 21 23  2  0  0  0  0
 22 23  1  0  0  0  0
 22 54  1  0  0  0  0
 24 25  2  0  0  0  0
 24 26  1  0  0  0  0
 25 27  1  0  0  0  0
 25 55  1  0  0  0  0
 26 28  2  0  0  0  0
 26 56  1  0  0  0  0
 27 29  2  0  0  0  0
 28 29  1  0  0  0  0
 28 59  1  0  0  0  0
 30 60  1  0  0  0  0
 30 61  1  0  0  0  0
 30 62  1  0  0  0  0
 31 63  1  0  0  0  0
 31 64  1  0  0  0  0
 31 65  1  0  0  0  0
M  END
> <PUBCHEM_COMPOUND_CID>
56946724

> <PUBCHEM_CONFORMER_RMSD>
1.4

> <PUBCHEM_CONFORMER_DIVERSEORDER>
4
219
261
50
221
179
274
70
87
248
323
278
39
8
118
281
226
257
40
128
301
143
321
208
271
88
94
268
224
297
142
191
135
314
115
295
97
123
90
171
309
153
59
55
138
167
305
262
102
215
289
218
127
326
334
99
292
104
130
290
161
286
265
71
229
91
129
65
189
85
182
63
325
333
29
240
252
25
213
141
332
164
304
209
244
41
121
193
75
35
149
324
12
133
247
106
307
139
38
112
300
335
276
78
220
275
336
263
260
111
110
14
21
84
210
264
93
223
206
199
176
280
119
126
169
116
236
74
232
195
328
136
212
23
2
330
192
291
76
246
28
117
16
165
181
151
109
152
125
202
251
27
250
320
298
174
100
45
214
3
58
30
315
144
316
170
283
200
60
267
239
306
155
10
299
33
282
15
131
122
22
5
36
285
207
9
32
178
241
86
124
154
231
173
113
163
317
175
203
302
101
134
243
194
177
303
148
259
17
245
294
137
319
68
1
24
62
185
26
266
284
80
308
296
13
72
235
120
31
180
46
140
52
288
211
157
82
313
43
254
279
227
318
310
184
217
156
48
225
108
183
233
89
18
147
37
216
61
158
270
311
51
42
186
269
162
7
331
150
145
166
114
201
96
159
237
196
69
249
19
172
160
312
53
47
230
204
64
83
187
255
222
66
92
168
20
329
73
146
277
197
258
242
44
6
95
98
293
322
81
132
198
49
190
67
103
56
205
287
11
228
57
256
272
327
234
188
105
273
79
107
54
77
253
34
238

> <PUBCHEM_MMFF94_PARTIAL_CHARGES>
34
1 -0.53
11 -0.14
12 0.27
15 0.36
16 -0.15
17 -0.15
18 0.27
19 0.14
2 -0.53
20 0.27
21 0.08
22 -0.15
23 0.08
24 -0.14
25 -0.15
26 -0.15
27 0.08
28 -0.15
29 0.08
3 -0.36
30 0.28
31 0.28
4 -0.36
45 0.15
46 0.15
5 -0.81
54 0.15
55 0.15
56 0.15
57 0.45
58 0.45
59 0.15
6 -0.56
7 0.34

> <PUBCHEM_EFFECTIVE_ROTOR_COUNT>
11

> <PUBCHEM_PHARMACOPHORE_FEATURES>
10
1 1 donor
1 2 donor
1 3 acceptor
1 4 acceptor
1 5 cation
1 6 acceptor
3 8 13 14 hydrophobe
4 7 8 9 10 hydrophobe
6 11 16 17 21 22 23 rings
6 24 25 26 27 28 29 rings

> <PUBCHEM_HEAVY_ATOM_COUNT>
31

> <PUBCHEM_ATOM_DEF_STEREO_COUNT>
0

> <PUBCHEM_ATOM_UDEF_STEREO_COUNT>
1

> <PUBCHEM_BOND_DEF_STEREO_COUNT>
0

> <PUBCHEM_BOND_UDEF_STEREO_COUNT>
0

> <PUBCHEM_ISOTOPIC_ATOM_COUNT>
0

> <PUBCHEM_COMPONENT_COUNT>
1

> <PUBCHEM_CACTVS_TAUTO_COUNT>
10

> <PUBCHEM_CONFORMER_ID>
0364F02400000004

> <PUBCHEM_MMFF94_ENERGY>
100.1383

> <PUBCHEM_FEATURE_SELFOVERLAP>
50.774

> <PUBCHEM_SHAPE_FINGERPRINT>
10670039 82 17917998243928724520
11991303 11 18059284469912202271
1361 2 18334849554300598013
13627175 23 18271259269306465536
13673619 4 13614232703070157867
13911987 19 18410569574763636663
14556957 393 17846214432761181553
14767858 380 18059849567559519951
14840074 17 18334301958960547180
14856354 85 17203604922316096279
14931854 50 18413111645873804236
15064981 194 18196668486324941246
15082195 135 18121480385277814965
15183329 4 18271816696876358390
1577012 14 18059300864181125962
16991971 28 16987979718641815919
17492 54 18411412904055043795
21033648 29 16515974682961733530
21033650 10 15913060768032786242
21424621 283 16082205183342929685
249057 25 18128811950429372938
3633792 109 18412257337601971029
3729539 64 18270676580063575385
4258327 124 18042135408691418534
5171179 24 13554525777308041675
54039377 194 11167944680326714228
6371009 1 18340759365365599074
9953998 17 13695871463276452366
999808 66 12247676080179554103

> <PUBCHEM_SHAPE_MULTIPOLES>
604.53
19.81
3.25
2.19
16.98
1.35
-1.23
-5.29
12.23
2.25
-0.52
-4.52
-1.04
-1.47

> <PUBCHEM_SHAPE_SELFOVERLAP>
1249.294

> <PUBCHEM_SHAPE_VOLUME>
346.1

> <PUBCHEM_COORDINATE_TYPE>
2
5
10

$$$$