44285895
  -OEChem-03242010103D

 82 83  0     1  0  0  0  0  0999 V2000
    0.2440    0.8067    1.5076 O   0  0  0  0  0  0  0  0  0  0  0  0
    2.2124    2.0939   -0.0483 O   0  0  0  0  0  0  0  0  0  0  0  0
    1.7551   -2.9672    0.8821 O   0  0  0  0  0  0  0  0  0  0  0  0
    5.1014    0.6868   -0.7816 O   0  0  0  0  0  0  0  0  0  0  0  0
    0.9502    3.7757   -1.0086 O   0  0  0  0  0  0  0  0  0  0  0  0
    1.2537    0.9422    3.5674 O   0  0  0  0  0  0  0  0  0  0  0  0
    0.9434   -5.1591    1.4021 O   0  0  0  0  0  0  0  0  0  0  0  0
    3.2574   -0.6832   -0.6019 N   0  0  0  0  0  0  0  0  0  0  0  0
    1.7946   -0.9463   -0.5011 C   0  0  2  0  0  0  0  0  0  0  0  0
    1.3330   -1.6028    0.8335 C   0  0  2  0  0  0  0  0  0  0  0  0
   -0.3715    2.1084    1.6369 C   0  0  1  0  0  0  0  0  0  0  0  0
    0.6674    3.2122    1.3437 C   0  0  1  0  0  0  0  0  0  0  0  0
   -1.5704    2.1147    0.6923 C   0  0  0  0  0  0  0  0  0  0  0  0
    1.3047   -1.7572   -1.7112 C   0  0  0  0  0  0  0  0  0  0  0  0
    1.8014   -0.8911    2.1122 C   0  0  0  0  0  0  0  0  0  0  0  0
    3.0216    1.8112   -1.2122 C   0  0  0  0  0  0  0  0  0  0  0  0
   -2.7420    1.3320    1.2820 C   0  0  0  0  0  0  0  0  0  0  0  0
    3.8689    0.5613   -0.8422 C   0  0  0  0  0  0  0  0  0  0  0  0
   -3.9764    1.3176    0.3758 C   0  0  0  0  0  0  0  0  0  0  0  0
    1.2695    3.0829   -0.0523 C   0  0  0  0  0  0  0  0  0  0  0  0
    1.0671    0.3755    2.4962 C   0  0  0  0  0  0  0  0  0  0  0  0
   -0.1659   -1.5637   -1.9371 C   0  0  0  0  0  0  0  0  0  0  0  0
    0.1005    4.6167    1.5521 C   0  0  0  0  0  0  0  0  0  0  0  0
    4.1510   -1.8299   -0.4040 C   0  0  0  0  0  0  0  0  0  0  0  0
   -5.1272    0.4736    0.9282 C   0  0  0  0  0  0  0  0  0  0  0  0
    2.2231    1.5859   -2.5026 C   0  0  0  0  0  0  0  0  0  0  0  0
    3.9787    3.0056   -1.4189 C   0  0  0  0  0  0  0  0  0  0  0  0
   -6.3233    0.4757   -0.0267 C   0  0  0  0  0  0  0  0  0  0  0  0
    0.8950   -3.7624    1.6931 C   0  0  0  0  0  0  0  0  0  0  0  0
   -1.0839   -2.4121   -1.3182 C   0  0  0  0  0  0  0  0  0  0  0  0
   -0.6151   -0.5356   -2.7656 C   0  0  0  0  0  0  0  0  0  0  0  0
   -7.4603   -0.3973    0.5041 C   0  0  0  0  0  0  0  0  0  0  0  0
   -2.4512   -2.2326   -1.5280 C   0  0  0  0  0  0  0  0  0  0  0  0
   -1.9823   -0.3559   -2.9755 C   0  0  0  0  0  0  0  0  0  0  0  0
   -8.6631   -0.3711   -0.4252 C   0  0  0  0  0  0  0  0  0  0  0  0
   -2.9004   -1.2044   -2.3567 C   0  0  0  0  0  0  0  0  0  0  0  0
    2.2387   -5.7070    1.6087 C   0  0  0  0  0  0  0  0  0  0  0  0
    1.3005    0.0205   -0.5447 H   0  0  0  0  0  0  0  0  0  0  0  0
    0.2377   -1.5756    0.8335 H   0  0  0  0  0  0  0  0  0  0  0  0
   -0.7272    2.2294    2.6689 H   0  0  0  0  0  0  0  0  0  0  0  0
    1.5074    3.1118    2.0442 H   0  0  0  0  0  0  0  0  0  0  0  0
   -1.9177    3.1344    0.5019 H   0  0  0  0  0  0  0  0  0  0  0  0
   -1.2960    1.6746   -0.2742 H   0  0  0  0  0  0  0  0  0  0  0  0
    1.5306   -2.8259   -1.6106 H   0  0  0  0  0  0  0  0  0  0  0  0
    1.8405   -1.4474   -2.6180 H   0  0  0  0  0  0  0  0  0  0  0  0
    2.8651   -0.6414    2.0415 H   0  0  0  0  0  0  0  0  0  0  0  0
    1.7010   -1.5589    2.9740 H   0  0  0  0  0  0  0  0  0  0  0  0
   -2.4290    0.2974    1.4707 H   0  0  0  0  0  0  0  0  0  0  0  0
   -3.0207    1.7609    2.2525 H   0  0  0  0  0  0  0  0  0  0  0  0
   -4.3230    2.3486    0.2309 H   0  0  0  0  0  0  0  0  0  0  0  0
   -3.6930    0.9432   -0.6129 H   0  0  0  0  0  0  0  0  0  0  0  0
   -0.6560    4.8813    0.8072 H   0  0  0  0  0  0  0  0  0  0  0  0
    0.8991    5.3629    1.4687 H   0  0  0  0  0  0  0  0  0  0  0  0
   -0.3450    4.7146    2.5473 H   0  0  0  0  0  0  0  0  0  0  0  0
    4.2087   -2.0589    0.6630 H   0  0  0  0  0  0  0  0  0  0  0  0
    5.1631   -1.6244   -0.7631 H   0  0  0  0  0  0  0  0  0  0  0  0
    3.7739   -2.6962   -0.9530 H   0  0  0  0  0  0  0  0  0  0  0  0
   -5.4325    0.8638    1.9064 H   0  0  0  0  0  0  0  0  0  0  0  0
   -4.7819   -0.5557    1.0827 H   0  0  0  0  0  0  0  0  0  0  0  0
    2.6105    0.7506   -3.0926 H   0  0  0  0  0  0  0  0  0  0  0  0
    1.1722    1.4294   -2.2714 H   0  0  0  0  0  0  0  0  0  0  0  0
    2.2524    2.4682   -3.1530 H   0  0  0  0  0  0  0  0  0  0  0  0
    4.5396    3.2208   -0.5014 H   0  0  0  0  0  0  0  0  0  0  0  0
    4.6962    2.8126   -2.2243 H   0  0  0  0  0  0  0  0  0  0  0  0
    3.4361    3.9238   -1.6673 H   0  0  0  0  0  0  0  0  0  0  0  0
   -6.0100    0.1087   -1.0116 H   0  0  0  0  0  0  0  0  0  0  0  0
   -6.6802    1.5038   -0.1636 H   0  0  0  0  0  0  0  0  0  0  0  0
    1.1468   -3.6241    2.7501 H   0  0  0  0  0  0  0  0  0  0  0  0
   -0.1523   -3.4720    1.5631 H   0  0  0  0  0  0  0  0  0  0  0  0
   -0.7522   -3.2348   -0.6937 H   0  0  0  0  0  0  0  0  0  0  0  0
    0.0755    0.0886   -3.3174 H   0  0  0  0  0  0  0  0  0  0  0  0
   -7.7664   -0.0471    1.4968 H   0  0  0  0  0  0  0  0  0  0  0  0
   -7.1140   -1.4312    0.6170 H   0  0  0  0  0  0  0  0  0  0  0  0
   -3.1660   -2.8968   -1.0511 H   0  0  0  0  0  0  0  0  0  0  0  0
   -2.3318    0.4341   -3.6336 H   0  0  0  0  0  0  0  0  0  0  0  0
   -8.3985   -0.7442   -1.4198 H   0  0  0  0  0  0  0  0  0  0  0  0
   -9.0543    0.6458   -0.5323 H   0  0  0  0  0  0  0  0  0  0  0  0
   -9.4635   -1.0027   -0.0272 H   0  0  0  0  0  0  0  0  0  0  0  0
   -3.9647   -1.0676   -2.5238 H   0  0  0  0  0  0  0  0  0  0  0  0
    2.1905   -6.7824    1.4175 H   0  0  0  0  0  0  0  0  0  0  0  0
    2.5628   -5.5505    2.6421 H   0  0  0  0  0  0  0  0  0  0  0  0
    2.9604   -5.2648    0.9153 H   0  0  0  0  0  0  0  0  0  0  0  0
  1 11  1  0  0  0  0
  1 21  1  0  0  0  0
  2 16  1  0  0  0  0
  2 20  1  0  0  0  0
  3 10  1  0  0  0  0
  3 29  1  0  0  0  0
  4 18  2  0  0  0  0
  5 20  2  0  0  0  0
  6 21  2  0  0  0  0
  7 29  1  0  0  0  0
  7 37  1  0  0  0  0
  8  9  1  0  0  0  0
  8 18  1  0  0  0  0
  8 24  1  0  0  0  0
  9 10  1  0  0  0  0
  9 14  1  0  0  0  0
  9 38  1  0  0  0  0
 10 15  1  0  0  0  0
 10 39  1  0  0  0  0
 11 12  1  0  0  0  0
 11 13  1  0  0  0  0
 11 40  1  0  0  0  0
 12 20  1  0  0  0  0
 12 23  1  0  0  0  0
 12 41  1  0  0  0  0
 13 17  1  0  0  0  0
 13 42  1  0  0  0  0
 13 43  1  0  0  0  0
 14 22  1  0  0  0  0
 14 44  1  0  0  0  0
 14 45  1  0  0  0  0
 15 21  1  0  0  0  0
 15 46  1  0  0  0  0
 15 47  1  0  0  0  0
 16 18  1  0  0  0  0
 16 26  1  0  0  0  0
 16 27  1  0  0  0  0
 17 19  1  0  0  0  0
 17 48  1  0  0  0  0
 17 49  1  0  0  0  0
 19 25  1  0  0  0  0
 19 50  1  0  0  0  0
 19 51  1  0  0  0  0
 22 30  2  0  0  0  0
 22 31  1  0  0  0  0
 23 52  1  0  0  0  0
 23 53  1  0  0  0  0
 23 54  1  0  0  0  0
 24 55  1  0  0  0  0
 24 56  1  0  0  0  0
 24 57  1  0  0  0  0
 25 28  1  0  0  0  0
 25 58  1  0  0  0  0
 25 59  1  0  0  0  0
 26 60  1  0  0  0  0
 26 61  1  0  0  0  0
 26 62  1  0  0  0  0
 27 63  1  0  0  0  0
 27 64  1  0  0  0  0
 27 65  1  0  0  0  0
 28 32  1  0  0  0  0
 28 66  1  0  0  0  0
 28 67  1  0  0  0  0
 29 68  1  0  0  0  0
 29 69  1  0  0  0  0
 30 33  1  0  0  0  0
 30 70  1  0  0  0  0
 31 34  2  0  0  0  0
 31 71  1  0  0  0  0
 32 35  1  0  0  0  0
 32 72  1  0  0  0  0
 32 73  1  0  0  0  0
 33 36  2  0  0  0  0
 33 74  1  0  0  0  0
 34 36  1  0  0  0  0
 34 75  1  0  0  0  0
 35 76  1  0  0  0  0
 35 77  1  0  0  0  0
 35 78  1  0  0  0  0
 36 79  1  0  0  0  0
 37 80  1  0  0  0  0
 37 81  1  0  0  0  0
 37 82  1  0  0  0  0
M  END
> <PUBCHEM_COMPOUND_CID>
44285895

> <PUBCHEM_CONFORMER_RMSD>
1.2

> <PUBCHEM_CONFORMER_DIVERSEORDER>
2
22
10
26
1
20
23
6
15
5
27
7
21
13
28
11
3
14
18
16
19
9
12
25
8
24
4
17

> <PUBCHEM_MMFF94_PARTIAL_CHARGES>
32
1 -0.43
10 0.28
11 0.28
12 0.06
14 0.14
15 0.06
16 0.34
18 0.57
2 -0.43
20 0.66
21 0.66
22 -0.14
24 0.3
29 0.56
3 -0.56
30 -0.15
31 -0.15
33 -0.15
34 -0.15
36 -0.15
37 0.28
4 -0.57
5 -0.57
6 -0.57
7 -0.56
70 0.15
71 0.15
74 0.15
75 0.15
79 0.15
8 -0.66
9 0.3

> <PUBCHEM_EFFECTIVE_ROTOR_COUNT>
12.8

> <PUBCHEM_PHARMACOPHORE_FEATURES>
10
1 3 acceptor
1 35 hydrophobe
1 4 acceptor
1 5 acceptor
1 6 acceptor
1 7 acceptor
3 13 17 19 hydrophobe
3 16 26 27 hydrophobe
3 25 28 32 hydrophobe
6 22 30 31 33 34 36 rings

> <PUBCHEM_HEAVY_ATOM_COUNT>
37

> <PUBCHEM_ATOM_DEF_STEREO_COUNT>
4

> <PUBCHEM_ATOM_UDEF_STEREO_COUNT>
0

> <PUBCHEM_BOND_DEF_STEREO_COUNT>
0

> <PUBCHEM_BOND_UDEF_STEREO_COUNT>
0

> <PUBCHEM_ISOTOPIC_ATOM_COUNT>
0

> <PUBCHEM_COMPONENT_COUNT>
1

> <PUBCHEM_CACTVS_TAUTO_COUNT>
4

> <PUBCHEM_CONFORMER_ID>
02A3BFC700000002

> <PUBCHEM_MMFF94_ENERGY>
94.6642

> <PUBCHEM_FEATURE_SELFOVERLAP>
50.795

> <PUBCHEM_SHAPE_FINGERPRINT>
11421498 54 18265049146049526202
11578080 2 16826447415261531546
12156800 1 17844231033974958968
12608794 3 18117820309059794720
131258 38 18341317968596469183
15001296 14 17987797557369622973
17492 54 18199490881044365140
19319366 153 18409731776625274303
27425 322 17901666295937367941
35225 105 17249256755936866908
469060 322 17830136188492027658
513532 50 16226048903494068161

> <PUBCHEM_SHAPE_MULTIPOLES>
715.38
10.9
5.85
3.04
30.51
3.66
-0.13
-0.16
-1.61
-5.76
3.44
-0.88
0.61
-2.95

> <PUBCHEM_SHAPE_SELFOVERLAP>
1438.223

> <PUBCHEM_SHAPE_VOLUME>
416.3

> <PUBCHEM_COORDINATE_TYPE>
2
5
10

$$$$