
 OpenBabel03292020543D

171174  0  0  1  0  0  0  0  0999 V2000
    0.7910    3.7237   -4.2835 C   0  0  0  0  0  0  0  0  0  0  0  0
   -0.5108    3.0299   -4.8634 C   0  0  0  0  0  0  0  0  0  0  0  0
   -1.3682    2.2724   -3.7688 C   0  0  2  0  0  0  0  0  0  0  0  0
   -0.2629    1.2751   -3.1782 C   0  0  0  0  0  0  0  0  0  0  0  0
   -3.2091    1.8736   -3.9025 C   0  0  2  0  0  0  0  0  0  0  0  0
   -4.6661    1.1083   -4.5693 N   0  0  0  0  0  0  0  0  0  0  0  0
   -6.1125    1.2712   -4.2088 C   0  0  0  0  0  0  0  0  0  0  0  0
   -6.3566    2.2245   -3.4510 O   0  0  0  0  0  0  0  0  0  0  0  0
   -7.5916    0.3842   -4.9180 C   0  0  1  0  0  0  0  0  0  0  0  0
   -7.9801   -1.1314   -4.8991 C   0  0  0  0  0  0  0  0  0  0  0  0
   -9.1516   -1.3793   -3.9295 C   0  0  0  0  0  0  0  0  0  0  0  0
   -9.6740    0.0055   -3.6141 C   0  0  0  0  0  0  0  0  0  0  0  0
   -9.0958    0.8469   -4.6686 N   0  0  0  0  0  0  0  0  0  0  0  0
  -10.1477    1.2442   -5.5463 C   0  0  0  0  0  0  0  0  0  0  0  0
  -11.2615    1.5374   -5.0770 O   0  0  0  0  0  0  0  0  0  0  0  0
  -10.0606    1.2584   -7.1012 C   0  0  2  0  0  0  0  0  0  0  0  0
  -10.3304   -0.1252   -7.7770 C   0  0  0  0  0  0  0  0  0  0  0  0
  -11.6526   -0.8679   -7.9446 C   0  0  0  0  0  0  0  0  0  0  0  0
  -12.8720   -0.4800   -7.3941 C   0  0  0  0  0  0  0  0  0  0  0  0
  -14.0236   -1.2585   -7.6008 C   0  0  0  0  0  0  0  0  0  0  0  0
  -13.9767   -2.4351   -8.3542 C   0  0  0  0  0  0  0  0  0  0  0  0
  -12.7843   -2.8406   -8.9194 C   0  0  0  0  0  0  0  0  0  0  0  0
  -11.6313   -2.0607   -8.7056 C   0  0  0  0  0  0  0  0  0  0  0  0
   -8.7946    2.0060   -7.3819 N   0  0  0  0  0  0  0  0  0  0  0  0
   -8.9305    3.4156   -6.9821 C   0  0  0  0  0  0  0  0  0  0  0  0
   -7.9887    1.7775   -8.5046 C   0  0  0  0  0  0  0  0  0  0  0  0
   -8.4465    1.7173   -9.6425 O   0  0  0  0  0  0  0  0  0  0  0  0
   -6.4384    1.4875   -8.1925 C   0  0  2  0  0  0  0  0  0  0  0  0
   -5.8162    2.7090   -7.4430 C   0  0  0  0  0  0  0  0  0  0  0  0
   -5.7138    4.0492   -8.1466 C   0  0  0  0  0  0  0  0  0  0  0  0
   -6.1365    4.2748   -9.4629 C   0  0  0  0  0  0  0  0  0  0  0  0
   -6.0485    5.5467  -10.0361 C   0  0  0  0  0  0  0  0  0  0  0  0
   -5.5287    6.6133   -9.3090 C   0  0  0  0  0  0  0  0  0  0  0  0
   -5.1136    6.4151   -7.9964 C   0  0  0  0  0  0  0  0  0  0  0  0
   -5.2125    5.1457   -7.4177 C   0  0  0  0  0  0  0  0  0  0  0  0
   -5.5499    0.9729   -9.2726 N   0  0  0  0  0  0  0  0  0  0  0  0
   -4.8485   -0.2494   -9.4724 C   0  0  0  0  0  0  0  0  0  0  0  0
   -3.7344   -0.0374   -9.9309 O   0  0  0  0  0  0  0  0  0  0  0  0
   -5.4307   -1.7759   -9.4181 C   0  0  2  0  0  0  0  0  0  0  0  0
   -6.6526   -1.9411   -8.4916 C   0  0  0  0  0  0  0  0  0  0  0  0
   -7.2998   -3.2786   -8.0966 C   0  0  0  0  0  0  0  0  0  0  0  0
   -7.7826   -1.1956   -9.1693 C   0  0  0  0  0  0  0  0  0  0  0  0
   -4.2426   -2.7360   -9.3081 N   0  0  0  0  0  0  0  0  0  0  0  0
   -3.5064   -2.8238  -10.5798 C   0  0  0  0  0  0  0  0  0  0  0  0
   -4.2466   -3.9812   -8.6599 C   0  0  0  0  0  0  0  0  0  0  0  0
   -5.1484   -4.8053   -8.8849 O   0  0  0  0  0  0  0  0  0  0  0  0
   -3.0012   -4.4125   -7.7366 C   0  0  1  0  0  0  0  0  0  0  0  0
   -1.8441   -3.4820   -7.2440 C   0  0  1  0  0  0  0  0  0  0  0  0
   -0.6321   -4.3593   -6.8654 C   0  0  0  0  0  0  0  0  0  0  0  0
   -1.4036   -2.3338   -8.1638 C   0  0  0  0  0  0  0  0  0  0  0  0
   -0.5001   -1.2821   -7.5225 C   0  0  0  0  0  0  0  0  0  0  0  0
   -3.4532   -5.2963   -6.5477 O   0  0  0  0  0  0  0  0  0  0  0  0
   -3.8697   -5.4707   -5.2706 C   0  0  0  0  0  0  0  0  0  0  0  0
   -3.6963   -6.6195   -4.8285 O   0  0  0  0  0  0  0  0  0  0  0  0
   -4.6973   -4.4543   -4.3407 C   0  0  2  0  0  0  0  0  0  0  0  0
   -4.4743   -2.9632   -4.5598 C   0  0  0  0  0  0  0  0  0  0  0  0
   -4.8234   -2.5459   -5.9671 C   0  0  0  0  0  0  0  0  0  0  0  0
   -5.2971   -2.0333   -3.6979 C   0  0  0  0  0  0  0  0  0  0  0  0
   -3.1119   -2.7552   -4.3667 O   0  0  0  0  0  0  0  0  0  0  0  0
   -4.5210   -4.8258   -2.8095 N   0  0  0  0  0  0  0  0  0  0  0  0
   -5.1412   -6.0712   -2.4113 C   0  0  0  0  0  0  0  0  0  0  0  0
   -4.5893   -3.8947   -1.7444 C   0  0  0  0  0  0  0  0  0  0  0  0
   -5.6409   -3.3794   -1.3679 O   0  0  0  0  0  0  0  0  0  0  0  0
   -3.3025   -3.7923   -0.9149 C   0  0  2  0  0  0  0  0  0  0  0  0
   -3.2004   -4.9228    0.1157 C   0  0  0  0  0  0  0  0  0  0  0  0
   -1.8813   -4.9459    0.9159 C   0  0  0  0  0  0  0  0  0  0  0  0
   -1.9212   -6.1117    1.8973 C   0  0  0  0  0  0  0  0  0  0  0  0
   -0.6507   -5.0519    0.0157 C   0  0  0  0  0  0  0  0  0  0  0  0
   -3.1427   -2.5283   -0.1855 N   0  0  0  0  0  0  0  0  0  0  0  0
   -2.1872   -1.5934   -0.4825 C   0  0  0  0  0  0  0  0  0  0  0  0
   -1.6232   -0.9816    0.4229 O   0  0  0  0  0  0  0  0  0  0  0  0
   -1.9877   -1.2860   -1.9817 C   0  0  2  0  0  0  0  0  0  0  0  0
   -0.6868   -2.0291   -2.5392 C   0  0  0  0  0  0  0  0  0  0  0  0
    0.6542   -1.8183   -1.8420 C   0  0  0  0  0  0  0  0  0  0  0  0
   -0.4076   -2.2287   -4.0359 C   0  0  0  0  0  0  0  0  0  0  0  0
   -2.4198    0.1074   -2.3016 N   0  0  0  0  0  0  0  0  0  0  0  0
   -2.6323    1.0781   -1.1972 C   0  0  0  0  0  0  0  0  0  0  0  0
   -2.7781    0.4402   -3.6056 C   0  0  0  0  0  0  0  0  0  0  0  0
   -2.7293   -0.3557   -4.5493 O   0  0  0  0  0  0  0  0  0  0  0  0
    1.2218    4.4369   -4.9931 H   0  0  0  0  0  0  0  0  0  0  0  0
    1.6203    3.0269   -4.0849 H   0  0  0  0  0  0  0  0  0  0  0  0
    0.5919    4.2549   -3.3441 H   0  0  0  0  0  0  0  0  0  0  0  0
   -0.1525    2.3088   -5.6110 H   0  0  0  0  0  0  0  0  0  0  0  0
   -1.0953    3.7989   -5.3610 H   0  0  0  0  0  0  0  0  0  0  0  0
   -1.4480    3.0420   -2.9832 H   0  0  0  0  0  0  0  0  0  0  0  0
   -0.1207    0.4074   -3.8220 H   0  0  0  0  0  0  0  0  0  0  0  0
   -0.3877    0.9896   -2.1363 H   0  0  0  0  0  0  0  0  0  0  0  0
    0.7364    1.7041   -3.0828 H   0  0  0  0  0  0  0  0  0  0  0  0
   -3.0785    2.2400   -4.9350 H   0  0  0  0  0  0  0  0  0  0  0  0
   -4.4135    0.2859   -5.1066 H   0  0  0  0  0  0  0  0  0  0  0  0
   -7.4427    0.5957   -5.9604 H   0  0  0  0  0  0  0  0  0  0  0  0
   -7.2718   -1.9337   -4.8289 H   0  0  0  0  0  0  0  0  0  0  0  0
   -8.4031   -1.3485   -5.8839 H   0  0  0  0  0  0  0  0  0  0  0  0
   -8.8820   -1.9216   -3.0194 H   0  0  0  0  0  0  0  0  0  0  0  0
   -9.9232   -1.9804   -4.4308 H   0  0  0  0  0  0  0  0  0  0  0  0
   -9.3517    0.3574   -2.6360 H   0  0  0  0  0  0  0  0  0  0  0  0
  -10.7746   -0.0399   -3.6137 H   0  0  0  0  0  0  0  0  0  0  0  0
  -10.8742    1.8965   -7.4714 H   0  0  0  0  0  0  0  0  0  0  0  0
  -10.0300    0.0032   -8.8219 H   0  0  0  0  0  0  0  0  0  0  0  0
   -9.7062   -0.8625   -7.2785 H   0  0  0  0  0  0  0  0  0  0  0  0
  -12.9591    0.4272   -6.8040 H   0  0  0  0  0  0  0  0  0  0  0  0
  -14.9730   -0.9487   -7.1682 H   0  0  0  0  0  0  0  0  0  0  0  0
  -14.8806   -3.0290   -8.5021 H   0  0  0  0  0  0  0  0  0  0  0  0
  -12.7283   -3.7458   -9.5126 H   0  0  0  0  0  0  0  0  0  0  0  0
  -10.7107   -2.4063   -9.1723 H   0  0  0  0  0  0  0  0  0  0  0  0
   -9.9619    3.7538   -7.1346 H   0  0  0  0  0  0  0  0  0  0  0  0
   -8.2960    4.0714   -7.5681 H   0  0  0  0  0  0  0  0  0  0  0  0
   -8.6903    3.5015   -5.9191 H   0  0  0  0  0  0  0  0  0  0  0  0
   -6.4224    0.6689   -7.4618 H   0  0  0  0  0  0  0  0  0  0  0  0
   -6.3888    2.8886   -6.5269 H   0  0  0  0  0  0  0  0  0  0  0  0
   -4.8044    2.4353   -7.1154 H   0  0  0  0  0  0  0  0  0  0  0  0
   -6.5645    3.4840  -10.0726 H   0  0  0  0  0  0  0  0  0  0  0  0
   -6.3936    5.7018  -11.0557 H   0  0  0  0  0  0  0  0  0  0  0  0
   -5.4542    7.5975   -9.7648 H   0  0  0  0  0  0  0  0  0  0  0  0
   -4.7181    7.2496   -7.4223 H   0  0  0  0  0  0  0  0  0  0  0  0
   -4.9043    5.0242   -6.3798 H   0  0  0  0  0  0  0  0  0  0  0  0
   -4.9432    1.7070   -9.6077 H   0  0  0  0  0  0  0  0  0  0  0  0
   -5.8318   -1.9779  -10.4272 H   0  0  0  0  0  0  0  0  0  0  0  0
   -6.4177   -1.4078   -7.5704 H   0  0  0  0  0  0  0  0  0  0  0  0
   -7.7479   -3.7939   -8.9522 H   0  0  0  0  0  0  0  0  0  0  0  0
   -8.1171   -3.0857   -7.3859 H   0  0  0  0  0  0  0  0  0  0  0  0
   -6.6540   -3.9716   -7.5661 H   0  0  0  0  0  0  0  0  0  0  0  0
   -8.5909   -1.8326   -9.5377 H   0  0  0  0  0  0  0  0  0  0  0  0
   -7.4875   -0.5604  -10.0073 H   0  0  0  0  0  0  0  0  0  0  0  0
   -8.1587   -0.5696   -8.3902 H   0  0  0  0  0  0  0  0  0  0  0  0
   -4.0842   -2.3860  -11.4017 H   0  0  0  0  0  0  0  0  0  0  0  0
   -3.2911   -3.8631  -10.8443 H   0  0  0  0  0  0  0  0  0  0  0  0
   -2.5703   -2.2711  -10.5146 H   0  0  0  0  0  0  0  0  0  0  0  0
   -2.5138   -5.1536   -8.3913 H   0  0  0  0  0  0  0  0  0  0  0  0
   -2.1625   -3.0137   -6.3243 H   0  0  0  0  0  0  0  0  0  0  0  0
   -0.2929   -4.9606   -7.7154 H   0  0  0  0  0  0  0  0  0  0  0  0
   -0.8853   -5.0413   -6.0469 H   0  0  0  0  0  0  0  0  0  0  0  0
    0.2201   -3.7652   -6.5265 H   0  0  0  0  0  0  0  0  0  0  0  0
   -0.9127   -2.7328   -9.0571 H   0  0  0  0  0  0  0  0  0  0  0  0
   -2.2783   -1.7616   -8.4610 H   0  0  0  0  0  0  0  0  0  0  0  0
    0.3980   -1.7030   -7.0680 H   0  0  0  0  0  0  0  0  0  0  0  0
   -1.0505   -0.7208   -6.7607 H   0  0  0  0  0  0  0  0  0  0  0  0
   -0.1813   -0.5566   -8.2789 H   0  0  0  0  0  0  0  0  0  0  0  0
   -5.7545   -4.6700   -4.5488 H   0  0  0  0  0  0  0  0  0  0  0  0
   -4.5603   -1.5100   -6.2026 H   0  0  0  0  0  0  0  0  0  0  0  0
   -5.8978   -2.7046   -6.1152 H   0  0  0  0  0  0  0  0  0  0  0  0
   -4.3245   -3.1088   -6.6549 H   0  0  0  0  0  0  0  0  0  0  0  0
   -5.5897   -1.1829   -4.2769 H   0  0  0  0  0  0  0  0  0  0  0  0
   -4.7690   -1.5671   -2.8523 H   0  0  0  0  0  0  0  0  0  0  0  0
   -6.2104   -2.5074   -3.3487 H   0  0  0  0  0  0  0  0  0  0  0  0
   -2.9377   -1.8168   -4.5834 H   0  0  0  0  0  0  0  0  0  0  0  0
   -5.9923   -6.2991   -3.0564 H   0  0  0  0  0  0  0  0  0  0  0  0
   -5.5108   -6.0118   -1.3808 H   0  0  0  0  0  0  0  0  0  0  0  0
   -4.3871   -6.8586   -2.4559 H   0  0  0  0  0  0  0  0  0  0  0  0
   -2.4768   -3.9120   -1.6206 H   0  0  0  0  0  0  0  0  0  0  0  0
   -4.0434   -4.8349    0.8170 H   0  0  0  0  0  0  0  0  0  0  0  0
   -3.3250   -5.8855   -0.3934 H   0  0  0  0  0  0  0  0  0  0  0  0
   -1.7873   -4.0262    1.5054 H   0  0  0  0  0  0  0  0  0  0  0  0
   -2.0677   -7.0596    1.3716 H   0  0  0  0  0  0  0  0  0  0  0  0
   -2.7460   -5.9800    2.6063 H   0  0  0  0  0  0  0  0  0  0  0  0
   -0.9915   -6.1705    2.4690 H   0  0  0  0  0  0  0  0  0  0  0  0
   -0.7921   -5.7913   -0.7781 H   0  0  0  0  0  0  0  0  0  0  0  0
    0.2432   -5.3182    0.5854 H   0  0  0  0  0  0  0  0  0  0  0  0
   -0.4389   -4.0883   -0.4513 H   0  0  0  0  0  0  0  0  0  0  0  0
   -3.3439   -2.5460    0.8127 H   0  0  0  0  0  0  0  0  0  0  0  0
   -2.8004   -1.8276   -2.4412 H   0  0  0  0  0  0  0  0  0  0  0  0
   -0.9031   -3.0594   -2.2505 H   0  0  0  0  0  0  0  0  0  0  0  0
    1.2525   -1.0379   -2.3168 H   0  0  0  0  0  0  0  0  0  0  0  0
    1.2324   -2.7515   -1.9367 H   0  0  0  0  0  0  0  0  0  0  0  0
    0.5602   -1.6164   -0.7761 H   0  0  0  0  0  0  0  0  0  0  0  0
    0.6434   -2.0788   -4.2988 H   0  0  0  0  0  0  0  0  0  0  0  0
   -0.9609   -1.5861   -4.7023 H   0  0  0  0  0  0  0  0  0  0  0  0
   -0.6330   -3.2692   -4.3059 H   0  0  0  0  0  0  0  0  0  0  0  0
   -3.4979    0.7795   -0.6064 H   0  0  0  0  0  0  0  0  0  0  0  0
   -2.8217    2.0917   -1.5596 H   0  0  0  0  0  0  0  0  0  0  0  0
   -1.7377    1.1464   -0.5687 H   0  0  0  0  0  0  0  0  0  0  0  0
  1  2  1  0  0  0  0
  1 80  1  0  0  0  0
  1 81  1  0  0  0  0
  1 82  1  0  0  0  0
  2  3  1  0  0  0  0
  2 83  1  0  0  0  0
  2 84  1  0  0  0  0
  3  4  1  0  0  0  0
  3  5  1  0  0  0  0
  3 85  1  1  0  0  0
  4 86  1  0  0  0  0
  4 87  1  0  0  0  0
  4 88  1  0  0  0  0
  5  6  1  0  0  0  0
  5 78  1  0  0  0  0
  5 89  1  6  0  0  0
  6  7  1  0  0  0  0
  6 90  1  0  0  0  0
  7  9  1  0  0  0  0
  7  8  2  0  0  0  0
  9 10  1  0  0  0  0
  9 13  1  0  0  0  0
  9 91  1  6  0  0  0
 10 11  1  0  0  0  0
 10 92  1  0  0  0  0
 10 93  1  0  0  0  0
 11 12  1  0  0  0  0
 11 94  1  0  0  0  0
 11 95  1  0  0  0  0
 12 13  1  0  0  0  0
 12 96  1  0  0  0  0
 12 97  1  0  0  0  0
 13 14  1  0  0  0  0
 14 16  1  0  0  0  0
 14 15  2  0  0  0  0
 16 24  1  0  0  0  0
 16 17  1  0  0  0  0
 16 98  1  6  0  0  0
 17 18  1  0  0  0  0
 17 99  1  0  0  0  0
 17100  1  0  0  0  0
 18 19  1  0  0  0  0
 18 23  2  0  0  0  0
 19 20  2  0  0  0  0
 19101  1  0  0  0  0
 20 21  1  0  0  0  0
 20102  1  0  0  0  0
 21 22  2  0  0  0  0
 21103  1  0  0  0  0
 22 23  1  0  0  0  0
 22104  1  0  0  0  0
 23105  1  0  0  0  0
 24 26  1  0  0  0  0
 24 25  1  0  0  0  0
 25106  1  0  0  0  0
 25107  1  0  0  0  0
 25108  1  0  0  0  0
 26 28  1  0  0  0  0
 26 27  2  0  0  0  0
 28 36  1  0  0  0  0
 28 29  1  0  0  0  0
 28109  1  1  0  0  0
 29 30  1  0  0  0  0
 29110  1  0  0  0  0
 29111  1  0  0  0  0
 30 31  1  0  0  0  0
 30 35  2  0  0  0  0
 31 32  2  0  0  0  0
 31112  1  0  0  0  0
 32 33  1  0  0  0  0
 32113  1  0  0  0  0
 33 34  2  0  0  0  0
 33114  1  0  0  0  0
 34 35  1  0  0  0  0
 34115  1  0  0  0  0
 35116  1  0  0  0  0
 36 37  1  0  0  0  0
 36117  1  0  0  0  0
 37 39  1  0  0  0  0
 37 38  2  0  0  0  0
 39 43  1  0  0  0  0
 39 40  1  0  0  0  0
 39118  1  6  0  0  0
 40 41  1  0  0  0  0
 40 42  1  0  0  0  0
 40119  1  0  0  0  0
 41120  1  0  0  0  0
 41121  1  0  0  0  0
 41122  1  0  0  0  0
 42123  1  0  0  0  0
 42124  1  0  0  0  0
 42125  1  0  0  0  0
 43 45  1  0  0  0  0
 43 44  1  0  0  0  0
 44126  1  0  0  0  0
 44127  1  0  0  0  0
 44128  1  0  0  0  0
 45 47  1  0  0  0  0
 45 46  2  0  0  0  0
 47 52  1  0  0  0  0
 47 48  1  0  0  0  0
 47129  1  6  0  0  0
 48 50  1  0  0  0  0
 48 49  1  0  0  0  0
 48130  1  1  0  0  0
 49131  1  0  0  0  0
 49132  1  0  0  0  0
 49133  1  0  0  0  0
 50 51  1  0  0  0  0
 50134  1  0  0  0  0
 50135  1  0  0  0  0
 51136  1  0  0  0  0
 51137  1  0  0  0  0
 51138  1  0  0  0  0
 52 53  1  0  0  0  0
 53 55  1  0  0  0  0
 53 54  2  0  0  0  0
 55 60  1  0  0  0  0
 55 56  1  0  0  0  0
 55139  1  6  0  0  0
 56 57  1  0  0  0  0
 56 58  1  0  0  0  0
 56 59  1  0  0  0  0
 57140  1  0  0  0  0
 57141  1  0  0  0  0
 57142  1  0  0  0  0
 58143  1  0  0  0  0
 58144  1  0  0  0  0
 58145  1  0  0  0  0
 59146  1  0  0  0  0
 60 62  1  0  0  0  0
 60 61  1  0  0  0  0
 61147  1  0  0  0  0
 61148  1  0  0  0  0
 61149  1  0  0  0  0
 62 64  1  0  0  0  0
 62 63  2  0  0  0  0
 64 69  1  0  0  0  0
 64 65  1  0  0  0  0
 64150  1  6  0  0  0
 65 66  1  0  0  0  0
 65151  1  0  0  0  0
 65152  1  0  0  0  0
 66 67  1  0  0  0  0
 66 68  1  0  0  0  0
 66153  1  0  0  0  0
 67154  1  0  0  0  0
 67155  1  0  0  0  0
 67156  1  0  0  0  0
 68157  1  0  0  0  0
 68158  1  0  0  0  0
 68159  1  0  0  0  0
 69 70  1  0  0  0  0
 69160  1  0  0  0  0
 70 72  1  0  0  0  0
 70 71  2  0  0  0  0
 72 76  1  0  0  0  0
 72 73  1  0  0  0  0
 72161  1  6  0  0  0
 73 74  1  0  0  0  0
 73 75  1  0  0  0  0
 73162  1  0  0  0  0
 74163  1  0  0  0  0
 74164  1  0  0  0  0
 74165  1  0  0  0  0
 75166  1  0  0  0  0
 75167  1  0  0  0  0
 75168  1  0  0  0  0
 76 78  1  0  0  0  0
 76 77  1  0  0  0  0
 77169  1  0  0  0  0
 77170  1  0  0  0  0
 77171  1  0  0  0  0
 78 79  2  0  0  0  0
M  END
>  <Energy>
814.186

$$$$