82
 OpenBabel03292021523D

191191  0  0  1  0  0  0  0  0999 V2000
    2.2377   -2.5378    3.8919 C   0  0  0  0  0  0  0  0  0  0  0  0
    2.1390   -3.2581    5.2691 C   0  0  0  0  0  0  0  0  0  0  0  0
    0.6231   -3.0822    5.6125 C   0  0  0  0  0  0  0  0  0  0  0  0
    2.6174   -4.8599    5.6305 C   0  0  0  0  0  0  0  0  0  0  0  0
    4.0260   -5.7662    5.4780 C   0  0  1  0  0  0  0  0  0  0  0  0
    4.2803   -7.6207    5.7404 C   0  0  0  0  0  0  0  0  0  0  0  0
    4.4034   -8.2965    4.7012 O   0  0  0  0  0  0  0  0  0  0  0  0
    4.2476   -8.4631    7.0843 N   0  0  0  0  0  0  0  0  0  0  0  0
    2.9411   -9.0788    7.0147 C   0  0  0  0  0  0  0  0  0  0  0  0
    5.3205   -9.6881    7.8911 C   0  0  1  0  0  0  0  0  0  0  0  0
    5.3384  -11.2752    7.6065 C   0  0  0  0  0  0  0  0  0  0  0  0
    5.6945  -12.0715    8.9442 C   0  0  0  0  0  0  0  0  0  0  0  0
    4.1919  -12.0993    7.0477 C   0  0  0  0  0  0  0  0  0  0  0  0
    6.8697   -9.4714    8.6941 C   0  0  0  0  0  0  0  0  0  0  0  0
    6.9161   -8.6825    9.6490 O   0  0  0  0  0  0  0  0  0  0  0  0
    8.1094  -10.0307    8.1909 N   0  0  0  0  0  0  0  0  0  0  0  0
    8.5106  -11.4584    8.0899 C   0  0  0  0  0  0  0  0  0  0  0  0
    9.3139   -9.1655    8.2173 C   0  0  1  0  0  0  0  0  0  0  0  0
    9.0074   -7.7299    7.8903 C   0  0  0  0  0  0  0  0  0  0  0  0
    8.1988   -7.1895    6.7466 C   0  0  0  0  0  0  0  0  0  0  0  0
    7.0819   -8.0747    6.3653 C   0  0  0  0  0  0  0  0  0  0  0  0
    7.5984   -5.8405    7.1583 C   0  0  0  0  0  0  0  0  0  0  0  0
   10.3813   -9.2803    9.4059 C   0  0  0  0  0  0  0  0  0  0  0  0
   10.6172  -10.3549    9.9481 O   0  0  0  0  0  0  0  0  0  0  0  0
   11.2650   -8.2318    9.6953 N   0  0  0  0  0  0  0  0  0  0  0  0
   10.8714   -6.8106    9.8843 C   0  0  1  0  0  0  0  0  0  0  0  0
   11.3471   -6.1700   11.2114 C   0  0  0  0  0  0  0  0  0  0  0  0
   10.5893   -4.8486   11.4468 C   0  0  0  0  0  0  0  0  0  0  0  0
   11.0467   -7.0971   12.4000 C   0  0  0  0  0  0  0  0  0  0  0  0
   11.0262   -5.8328    8.6419 C   0  0  0  0  0  0  0  0  0  0  0  0
   10.2331   -4.8851    8.4900 O   0  0  0  0  0  0  0  0  0  0  0  0
   12.1314   -5.9667    7.7754 N   0  0  0  0  0  0  0  0  0  0  0  0
   13.0759   -4.9226    8.1679 C   0  0  0  0  0  0  0  0  0  0  0  0
   11.8173   -5.8611    6.3023 C   0  0  0  0  0  0  0  0  0  0  0  0
   11.2539   -6.9685    5.2885 C   0  0  0  0  0  0  0  0  0  0  0  0
   10.7155   -6.5725    4.2477 O   0  0  0  0  0  0  0  0  0  0  0  0
   11.5043   -8.3407    5.4642 N   0  0  0  0  0  0  0  0  0  0  0  0
   12.5966   -8.6612    6.3702 C   0  0  0  0  0  0  0  0  0  0  0  0
   11.0954   -9.3306    4.3660 C   0  0  2  0  0  0  0  0  0  0  0  0
    9.6831  -10.0160    4.4398 C   0  0  0  0  0  0  0  0  0  0  0  0
    8.4228   -9.3443    3.9192 C   0  0  0  0  0  0  0  0  0  0  0  0
    8.4692   -8.7461    2.5506 C   0  0  0  0  0  0  0  0  0  0  0  0
    7.2265  -10.3148    3.9769 C   0  0  0  0  0  0  0  0  0  0  0  0
   11.9465  -10.6313    4.2782 C   0  0  0  0  0  0  0  0  0  0  0  0
   12.1251  -11.3745    5.2470 O   0  0  0  0  0  0  0  0  0  0  0  0
   12.3401  -11.0963    3.0545 N   0  0  0  0  0  0  0  0  0  0  0  0
   12.6049  -10.2985    1.8583 C   0  0  1  0  0  0  0  0  0  0  0  0
   13.9671  -10.7000    1.2660 C   0  0  0  0  0  0  0  0  0  0  0  0
   14.2921   -9.8617    0.0351 C   0  0  0  0  0  0  0  0  0  0  0  0
   15.0961  -10.5496    2.3042 C   0  0  0  0  0  0  0  0  0  0  0  0
   11.3517  -10.2434    0.9095 C   0  0  0  0  0  0  0  0  0  0  0  0
   10.8075   -9.1463    0.7297 O   0  0  0  0  0  0  0  0  0  0  0  0
   10.8086  -11.4034    0.3428 N   0  0  0  0  0  0  0  0  0  0  0  0
   11.6820  -12.3121   -0.3784 C   0  0  0  0  0  0  0  0  0  0  0  0
    9.4033  -11.3503   -0.1305 C   0  0  2  0  0  0  0  0  0  0  0  0
    8.6377  -12.6846   -0.0689 C   0  0  0  0  0  0  0  0  0  0  0  0
    8.4114  -13.2934    1.3373 C   0  0  0  0  0  0  0  0  0  0  0  0
    7.6116  -14.5932    1.2114 C   0  0  0  0  0  0  0  0  0  0  0  0
    9.6808  -13.5773    2.1371 C   0  0  0  0  0  0  0  0  0  0  0  0
    9.2336  -10.7153   -1.5232 C   0  0  0  0  0  0  0  0  0  0  0  0
    9.9118  -11.1098   -2.4741 O   0  0  0  0  0  0  0  0  0  0  0  0
    8.3000   -9.7575   -1.8120 N   0  0  0  0  0  0  0  0  0  0  0  0
    7.6006   -8.8365   -0.9091 C   0  0  1  0  0  0  0  0  0  0  0  0
    7.5836   -7.4275   -1.4946 C   0  0  0  0  0  0  0  0  0  0  0  0
    6.3145   -9.4825   -0.3178 C   0  0  0  0  0  0  0  0  0  0  0  0
    6.4332  -10.4353    0.4717 O   0  0  0  0  0  0  0  0  0  0  0  0
    5.0211   -9.2007   -0.6101 N   0  0  0  0  0  0  0  0  0  0  0  0
    4.3564   -8.1183   -1.3509 C   0  0  2  0  0  0  0  0  0  0  0  0
    4.6768   -8.0880   -2.8240 C   0  0  0  0  0  0  0  0  0  0  0  0
    4.3652   -6.8030   -0.5521 C   0  0  0  0  0  0  0  0  0  0  0  0
    4.5751   -5.6845   -1.0622 O   0  0  0  0  0  0  0  0  0  0  0  0
    4.0027   -7.0092    0.8102 N   0  0  0  0  0  0  0  0  0  0  0  0
    2.5609   -7.1283    0.9987 C   0  0  0  0  0  0  0  0  0  0  0  0
    4.8257   -6.4276    1.9469 C   0  0  1  0  0  0  0  0  0  0  0  0
    6.2223   -5.8932    1.4829 C   0  0  0  0  0  0  0  0  0  0  0  0
    7.2110   -5.2470    2.4684 C   0  0  0  0  0  0  0  0  0  0  0  0
    7.3333   -5.9959    3.7697 C   0  0  0  0  0  0  0  0  0  0  0  0
    8.6207   -5.0564    1.9133 C   0  0  0  0  0  0  0  0  0  0  0  0
    4.0316   -5.5038    2.9402 C   0  0  0  0  0  0  0  0  0  0  0  0
    2.9551   -5.0016    2.6386 O   0  0  0  0  0  0  0  0  0  0  0  0
    4.6533   -5.2287    4.1802 N   0  0  0  0  0  0  0  0  0  0  0  0
    5.0522   -3.8107    4.2426 C   0  0  0  0  0  0  0  0  0  0  0  0
    1.6618   -1.5938    3.9031 H   0  0  0  0  0  0  0  0  0  0  0  0
    1.8041   -3.1043    3.0675 H   0  0  0  0  0  0  0  0  0  0  0  0
    3.2374   -2.1918    3.6371 H   0  0  0  0  0  0  0  0  0  0  0  0
    2.6655   -2.6002    5.9771 H   0  0  0  0  0  0  0  0  0  0  0  0
   -0.0173   -3.5737    4.8684 H   0  0  0  0  0  0  0  0  0  0  0  0
    0.3352   -2.0173    5.6010 H   0  0  0  0  0  0  0  0  0  0  0  0
    0.3742   -3.4602    6.6041 H   0  0  0  0  0  0  0  0  0  0  0  0
    1.8381   -5.4565    5.1657 H   0  0  0  0  0  0  0  0  0  0  0  0
    2.5481   -4.7948    6.7188 H   0  0  0  0  0  0  0  0  0  0  0  0
    4.6890   -5.3842    6.2621 H   0  0  0  0  0  0  0  0  0  0  0  0
    2.9021   -9.7451    6.1418 H   0  0  0  0  0  0  0  0  0  0  0  0
    2.1782   -8.3136    6.9005 H   0  0  0  0  0  0  0  0  0  0  0  0
    2.7352   -9.6640    7.9143 H   0  0  0  0  0  0  0  0  0  0  0  0
    4.7230   -9.6721    8.8216 H   0  0  0  0  0  0  0  0  0  0  0  0
    6.1444  -11.4170    6.8815 H   0  0  0  0  0  0  0  0  0  0  0  0
    4.8298  -12.1516    9.6100 H   0  0  0  0  0  0  0  0  0  0  0  0
    6.4842  -11.6368    9.5624 H   0  0  0  0  0  0  0  0  0  0  0  0
    6.0291  -13.0949    8.7167 H   0  0  0  0  0  0  0  0  0  0  0  0
    3.3842  -12.2250    7.7747 H   0  0  0  0  0  0  0  0  0  0  0  0
    4.5722  -13.1174    6.8474 H   0  0  0  0  0  0  0  0  0  0  0  0
    3.8151  -11.7257    6.1008 H   0  0  0  0  0  0  0  0  0  0  0  0
    7.7696  -12.1222    7.6649 H   0  0  0  0  0  0  0  0  0  0  0  0
    8.7932  -11.8345    9.0790 H   0  0  0  0  0  0  0  0  0  0  0  0
    9.3879  -11.5599    7.4361 H   0  0  0  0  0  0  0  0  0  0  0  0
    9.9143   -9.5265    7.3739 H   0  0  0  0  0  0  0  0  0  0  0  0
    9.9791   -7.3528    7.6444 H   0  0  0  0  0  0  0  0  0  0  0  0
    8.5998   -7.2896    8.7917 H   0  0  0  0  0  0  0  0  0  0  0  0
    8.8428   -7.0442    5.8892 H   0  0  0  0  0  0  0  0  0  0  0  0
    6.3498   -7.8937    7.1263 H   0  0  0  0  0  0  0  0  0  0  0  0
    7.3396   -9.1237    6.2709 H   0  0  0  0  0  0  0  0  0  0  0  0
    6.6312   -7.7950    5.4324 H   0  0  0  0  0  0  0  0  0  0  0  0
    7.2988   -5.8283    8.2123 H   0  0  0  0  0  0  0  0  0  0  0  0
    6.6911   -5.6362    6.5966 H   0  0  0  0  0  0  0  0  0  0  0  0
    8.2979   -5.0290    6.9707 H   0  0  0  0  0  0  0  0  0  0  0  0
   11.9710   -8.5619   10.3424 H   0  0  0  0  0  0  0  0  0  0  0  0
    9.7979   -6.8797   10.0679 H   0  0  0  0  0  0  0  0  0  0  0  0
   12.4250   -5.9706   11.1818 H   0  0  0  0  0  0  0  0  0  0  0  0
    9.5043   -5.0039   11.3657 H   0  0  0  0  0  0  0  0  0  0  0  0
   10.8687   -4.0900   10.7067 H   0  0  0  0  0  0  0  0  0  0  0  0
   10.7858   -4.4213   12.4319 H   0  0  0  0  0  0  0  0  0  0  0  0
    9.9982   -7.4169   12.3944 H   0  0  0  0  0  0  0  0  0  0  0  0
   11.2376   -6.5899   13.3509 H   0  0  0  0  0  0  0  0  0  0  0  0
   11.6714   -7.9947   12.3761 H   0  0  0  0  0  0  0  0  0  0  0  0
   13.3345   -5.0261    9.2262 H   0  0  0  0  0  0  0  0  0  0  0  0
   12.6042   -3.9345    8.0414 H   0  0  0  0  0  0  0  0  0  0  0  0
   13.9836   -4.9655    7.5659 H   0  0  0  0  0  0  0  0  0  0  0  0
   12.7607   -5.5740    5.8172 H   0  0  0  0  0  0  0  0  0  0  0  0
   11.1398   -5.0006    6.1865 H   0  0  0  0  0  0  0  0  0  0  0  0
   13.3996   -7.9271    6.2520 H   0  0  0  0  0  0  0  0  0  0  0  0
   13.0424   -9.6316    6.2156 H   0  0  0  0  0  0  0  0  0  0  0  0
   12.2235   -8.6155    7.3880 H   0  0  0  0  0  0  0  0  0  0  0  0
   11.1529   -8.7834    3.4259 H   0  0  0  0  0  0  0  0  0  0  0  0
    9.7224  -10.9542    3.8677 H   0  0  0  0  0  0  0  0  0  0  0  0
    9.5028  -10.3316    5.4690 H   0  0  0  0  0  0  0  0  0  0  0  0
    8.2694   -8.5006    4.5501 H   0  0  0  0  0  0  0  0  0  0  0  0
    8.6836   -9.5243    1.8530 H   0  0  0  0  0  0  0  0  0  0  0  0
    9.2234   -7.9687    2.4591 H   0  0  0  0  0  0  0  0  0  0  0  0
    7.4943   -8.3321    2.2842 H   0  0  0  0  0  0  0  0  0  0  0  0
    7.2443  -11.0179    3.1425 H   0  0  0  0  0  0  0  0  0  0  0  0
    6.2770   -9.7772    3.9059 H   0  0  0  0  0  0  0  0  0  0  0  0
    7.2147  -10.9060    4.8961 H   0  0  0  0  0  0  0  0  0  0  0  0
   12.7438  -12.0233    3.1116 H   0  0  0  0  0  0  0  0  0  0  0  0
   12.7335   -9.2636    2.2041 H   0  0  0  0  0  0  0  0  0  0  0  0
   13.9687  -11.7550    0.9893 H   0  0  0  0  0  0  0  0  0  0  0  0
   14.5284   -8.8299    0.3146 H   0  0  0  0  0  0  0  0  0  0  0  0
   13.4574   -9.8354   -0.6702 H   0  0  0  0  0  0  0  0  0  0  0  0
   15.1549  -10.2823   -0.4896 H   0  0  0  0  0  0  0  0  0  0  0  0
   15.1947   -9.5129    2.6429 H   0  0  0  0  0  0  0  0  0  0  0  0
   16.0534  -10.8642    1.8764 H   0  0  0  0  0  0  0  0  0  0  0  0
   14.9225  -11.1744    3.1876 H   0  0  0  0  0  0  0  0  0  0  0  0
   12.4374  -12.7079    0.2924 H   0  0  0  0  0  0  0  0  0  0  0  0
   12.1526  -11.7771   -1.2073 H   0  0  0  0  0  0  0  0  0  0  0  0
   11.1371  -13.1709   -0.7686 H   0  0  0  0  0  0  0  0  0  0  0  0
    8.8677  -10.7057    0.5770 H   0  0  0  0  0  0  0  0  0  0  0  0
    7.6455  -12.5306   -0.5148 H   0  0  0  0  0  0  0  0  0  0  0  0
    9.1152  -13.4244   -0.7166 H   0  0  0  0  0  0  0  0  0  0  0  0
    7.8020  -12.5955    1.9163 H   0  0  0  0  0  0  0  0  0  0  0  0
    8.1659  -15.3399    0.6330 H   0  0  0  0  0  0  0  0  0  0  0  0
    6.6529  -14.4150    0.7145 H   0  0  0  0  0  0  0  0  0  0  0  0
    7.4007  -15.0185    2.1988 H   0  0  0  0  0  0  0  0  0  0  0  0
   10.3764  -14.2096    1.5773 H   0  0  0  0  0  0  0  0  0  0  0  0
    9.4447  -14.0873    3.0778 H   0  0  0  0  0  0  0  0  0  0  0  0
   10.1895  -12.6559    2.4139 H   0  0  0  0  0  0  0  0  0  0  0  0
    8.3019   -9.5117   -2.7925 H   0  0  0  0  0  0  0  0  0  0  0  0
    8.2478   -8.7270   -0.0445 H   0  0  0  0  0  0  0  0  0  0  0  0
    7.4359   -7.4077   -2.5751 H   0  0  0  0  0  0  0  0  0  0  0  0
    8.5556   -6.9488   -1.3234 H   0  0  0  0  0  0  0  0  0  0  0  0
    6.8436   -6.7794   -1.0396 H   0  0  0  0  0  0  0  0  0  0  0  0
    4.4202   -9.7342   -0.0127 H   0  0  0  0  0  0  0  0  0  0  0  0
    3.2890   -8.4281   -1.3355 H   0  0  0  0  0  0  0  0  0  0  0  0
    5.7123   -8.3674   -3.0507 H   0  0  0  0  0  0  0  0  0  0  0  0
    4.4639   -7.1139   -3.2857 H   0  0  0  0  0  0  0  0  0  0  0  0
    4.0795   -8.8426   -3.3612 H   0  0  0  0  0  0  0  0  0  0  0  0
    2.1631   -7.9208    0.3681 H   0  0  0  0  0  0  0  0  0  0  0  0
    2.0699   -6.1975    0.6881 H   0  0  0  0  0  0  0  0  0  0  0  0
    2.3239   -7.3673    2.0361 H   0  0  0  0  0  0  0  0  0  0  0  0
    5.0029   -7.3308    2.5337 H   0  0  0  0  0  0  0  0  0  0  0  0
    6.0795   -5.1594    0.6892 H   0  0  0  0  0  0  0  0  0  0  0  0
    6.7291   -6.7499    1.0384 H   0  0  0  0  0  0  0  0  0  0  0  0
    6.8555   -4.2349    2.6515 H   0  0  0  0  0  0  0  0  0  0  0  0
    8.3126   -6.4378    3.9081 H   0  0  0  0  0  0  0  0  0  0  0  0
    6.5951   -6.7888    3.8393 H   0  0  0  0  0  0  0  0  0  0  0  0
    7.2114   -5.3257    4.6134 H   0  0  0  0  0  0  0  0  0  0  0  0
    9.0510   -5.9967    1.5595 H   0  0  0  0  0  0  0  0  0  0  0  0
    9.2771   -4.6669    2.7023 H   0  0  0  0  0  0  0  0  0  0  0  0
    8.6281   -4.3382    1.0922 H   0  0  0  0  0  0  0  0  0  0  0  0
    6.1009   -3.6959    4.5025 H   0  0  0  0  0  0  0  0  0  0  0  0
    4.5323   -3.2674    5.0251 H   0  0  0  0  0  0  0  0  0  0  0  0
    4.8942   -3.3175    3.2739 H   0  0  0  0  0  0  0  0  0  0  0  0
  1  2  1  0  0  0  0
  1 83  1  0  0  0  0
  1 84  1  0  0  0  0
  1 85  1  0  0  0  0
  2  3  1  0  0  0  0
  2  4  1  0  0  0  0
  2 86  1  0  0  0  0
  3 87  1  0  0  0  0
  3 88  1  0  0  0  0
  3 89  1  0  0  0  0
  4  5  1  0  0  0  0
  4 90  1  0  0  0  0
  4 91  1  0  0  0  0
  5  6  1  0  0  0  0
  5 81  1  0  0  0  0
  5 92  1  1  0  0  0
  6  7  2  0  0  0  0
  6  8  1  0  0  0  0
  8  9  1  0  0  0  0
  8 10  1  0  0  0  0
  9 93  1  0  0  0  0
  9 94  1  0  0  0  0
  9 95  1  0  0  0  0
 10 11  1  0  0  0  0
 10 14  1  0  0  0  0
 10 96  1  1  0  0  0
 11 12  1  0  0  0  0
 11 13  1  0  0  0  0
 11 97  1  0  0  0  0
 12 98  1  0  0  0  0
 12 99  1  0  0  0  0
 12100  1  0  0  0  0
 13101  1  0  0  0  0
 13102  1  0  0  0  0
 13103  1  0  0  0  0
 14 15  2  0  0  0  0
 14 16  1  0  0  0  0
 16 17  1  0  0  0  0
 16 18  1  0  0  0  0
 17104  1  0  0  0  0
 17105  1  0  0  0  0
 17106  1  0  0  0  0
 18 19  1  0  0  0  0
 18 23  1  0  0  0  0
 18107  1  6  0  0  0
 19 20  1  0  0  0  0
 19108  1  0  0  0  0
 19109  1  0  0  0  0
 20 21  1  0  0  0  0
 20 22  1  0  0  0  0
 20110  1  0  0  0  0
 21111  1  0  0  0  0
 21112  1  0  0  0  0
 21113  1  0  0  0  0
 22114  1  0  0  0  0
 22115  1  0  0  0  0
 22116  1  0  0  0  0
 23 24  2  0  0  0  0
 23 25  1  0  0  0  0
 25 26  1  0  0  0  0
 25117  1  0  0  0  0
 26 27  1  0  0  0  0
 26 30  1  0  0  0  0
 26118  1  1  0  0  0
 27 28  1  0  0  0  0
 27 29  1  0  0  0  0
 27119  1  0  0  0  0
 28120  1  0  0  0  0
 28121  1  0  0  0  0
 28122  1  0  0  0  0
 29123  1  0  0  0  0
 29124  1  0  0  0  0
 29125  1  0  0  0  0
 30 31  2  0  0  0  0
 30 32  1  0  0  0  0
 32 33  1  0  0  0  0
 32 34  1  0  0  0  0
 33126  1  0  0  0  0
 33127  1  0  0  0  0
 33128  1  0  0  0  0
 34 35  1  0  0  0  0
 34129  1  0  0  0  0
 34130  1  0  0  0  0
 35 36  2  0  0  0  0
 35 37  1  0  0  0  0
 37 38  1  0  0  0  0
 37 39  1  0  0  0  0
 38131  1  0  0  0  0
 38132  1  0  0  0  0
 38133  1  0  0  0  0
 39 44  1  0  0  0  0
 39 40  1  0  0  0  0
 39134  1  6  0  0  0
 40 41  1  0  0  0  0
 40135  1  0  0  0  0
 40136  1  0  0  0  0
 41 42  1  0  0  0  0
 41 43  1  0  0  0  0
 41137  1  0  0  0  0
 42138  1  0  0  0  0
 42139  1  0  0  0  0
 42140  1  0  0  0  0
 43141  1  0  0  0  0
 43142  1  0  0  0  0
 43143  1  0  0  0  0
 44 45  2  0  0  0  0
 44 46  1  0  0  0  0
 46 47  1  0  0  0  0
 46144  1  0  0  0  0
 47 48  1  0  0  0  0
 47 51  1  0  0  0  0
 47145  1  1  0  0  0
 48 49  1  0  0  0  0
 48 50  1  0  0  0  0
 48146  1  0  0  0  0
 49147  1  0  0  0  0
 49148  1  0  0  0  0
 49149  1  0  0  0  0
 50150  1  0  0  0  0
 50151  1  0  0  0  0
 50152  1  0  0  0  0
 51 52  2  0  0  0  0
 51 53  1  0  0  0  0
 53 54  1  0  0  0  0
 53 55  1  0  0  0  0
 54153  1  0  0  0  0
 54154  1  0  0  0  0
 54155  1  0  0  0  0
 55 60  1  0  0  0  0
 55 56  1  0  0  0  0
 55156  1  1  0  0  0
 56 57  1  0  0  0  0
 56157  1  0  0  0  0
 56158  1  0  0  0  0
 57 58  1  0  0  0  0
 57 59  1  0  0  0  0
 57159  1  0  0  0  0
 58160  1  0  0  0  0
 58161  1  0  0  0  0
 58162  1  0  0  0  0
 59163  1  0  0  0  0
 59164  1  0  0  0  0
 59165  1  0  0  0  0
 60 61  2  0  0  0  0
 60 62  1  0  0  0  0
 62 63  1  0  0  0  0
 62166  1  0  0  0  0
 63 64  1  0  0  0  0
 63 65  1  0  0  0  0
 63167  1  1  0  0  0
 64168  1  0  0  0  0
 64169  1  0  0  0  0
 64170  1  0  0  0  0
 65 66  2  0  0  0  0
 65 67  1  0  0  0  0
 67 68  1  0  0  0  0
 67171  1  0  0  0  0
 68 70  1  0  0  0  0
 68 69  1  0  0  0  0
 68172  1  1  0  0  0
 69173  1  0  0  0  0
 69174  1  0  0  0  0
 69175  1  0  0  0  0
 70 71  2  0  0  0  0
 70 72  1  0  0  0  0
 72 73  1  0  0  0  0
 72 74  1  0  0  0  0
 73176  1  0  0  0  0
 73177  1  0  0  0  0
 73178  1  0  0  0  0
 74 75  1  0  0  0  0
 74 79  1  0  0  0  0
 74179  1  1  0  0  0
 75 76  1  0  0  0  0
 75180  1  0  0  0  0
 75181  1  0  0  0  0
 76 77  1  0  0  0  0
 76 78  1  0  0  0  0
 76182  1  0  0  0  0
 77183  1  0  0  0  0
 77184  1  0  0  0  0
 77185  1  0  0  0  0
 78186  1  0  0  0  0
 78187  1  0  0  0  0
 78188  1  0  0  0  0
 79 80  2  0  0  0  0
 79 81  1  0  0  0  0
 81 82  1  0  0  0  0
 82189  1  0  0  0  0
 82190  1  0  0  0  0
 82191  1  0  0  0  0
M  END
>  <Energy>
736.541

$$$$