83
 OpenBabel03292021523D

181184  0  0  1  0  0  0  0  0999 V2000
    7.5373   -2.7490    1.1888 C   0  0  0  0  0  0  0  0  0  0  0  0
    7.8175   -3.4735    2.5657 C   0  0  0  0  0  0  0  0  0  0  0  0
    6.8155   -3.3892    3.8092 C   0  0  2  0  0  0  0  0  0  0  0  0
    5.9113   -2.1536    3.3656 C   0  0  0  0  0  0  0  0  0  0  0  0
    5.9642   -4.6382    4.8773 C   0  0  2  0  0  0  0  0  0  0  0  0
    6.3056   -6.3281    5.3495 N   0  0  0  0  0  0  0  0  0  0  0  0
    5.8843   -7.1174    6.5221 C   0  0  0  0  0  0  0  0  0  0  0  0
    5.2334   -6.3947    7.2969 O   0  0  0  0  0  0  0  0  0  0  0  0
    6.1497   -8.8978    7.1795 C   0  0  2  0  0  0  0  0  0  0  0  0
    7.3744   -9.8913    7.3823 C   0  0  0  0  0  0  0  0  0  0  0  0
    7.0028  -11.2843    6.8194 C   0  0  0  0  0  0  0  0  0  0  0  0
    5.4996  -11.2787    6.6827 C   0  0  0  0  0  0  0  0  0  0  0  0
    5.0835  -10.1260    7.4683 N   0  0  0  0  0  0  0  0  0  0  0  0
    4.3237  -10.6240    8.5623 C   0  0  0  0  0  0  0  0  0  0  0  0
    3.5512  -11.5857    8.3453 O   0  0  0  0  0  0  0  0  0  0  0  0
    4.3316  -10.1850   10.0484 C   0  0  1  0  0  0  0  0  0  0  0  0
    5.6268  -10.5298   10.7888 C   0  0  0  0  0  0  0  0  0  0  0  0
    3.7122   -8.8830   10.3061 N   0  0  0  0  0  0  0  0  0  0  0  0
    2.2965   -8.8734   10.6551 C   0  0  0  0  0  0  0  0  0  0  0  0
    4.4912   -7.7826   10.1162 C   0  0  0  0  0  0  0  0  0  0  0  0
    5.7070   -7.9504   10.1313 O   0  0  0  0  0  0  0  0  0  0  0  0
    3.9259   -6.3831    9.9151 C   0  0  2  0  0  0  0  0  0  0  0  0
    2.9211   -6.0552    8.7159 C   0  0  0  0  0  0  0  0  0  0  0  0
    2.1351   -7.1654    7.9568 C   0  0  0  0  0  0  0  0  0  0  0  0
    0.8089   -7.1163    7.5838 C   0  0  0  0  0  0  0  0  0  0  0  0
    0.2194   -8.1440    6.7713 C   0  0  0  0  0  0  0  0  0  0  0  0
    0.9788   -9.2379    6.3647 C   0  0  0  0  0  0  0  0  0  0  0  0
    0.6512  -10.3078    5.5718 O   0  0  0  0  0  0  0  0  0  0  0  0
   -0.5927  -10.3064    4.9108 C   0  0  0  0  0  0  0  0  0  0  0  0
   -0.8922  -11.7276    4.3757 C   0  0  0  0  0  0  0  0  0  0  0  0
   -0.7534  -12.8264    5.4457 C   0  0  0  0  0  0  0  0  0  0  0  0
   -1.7826  -12.6648    6.5597 C   0  0  0  0  0  0  0  0  0  0  0  0
   -3.2096  -12.5734    6.0171 C   0  0  0  0  0  0  0  0  0  0  0  0
   -3.3714  -11.5867    4.8601 C   0  0  0  0  0  0  0  0  0  0  0  0
   -2.3035  -11.7806    3.7819 C   0  0  0  0  0  0  0  0  0  0  0  0
    2.2670   -9.2528    6.7007 C   0  0  0  0  0  0  0  0  0  0  0  0
    2.8601   -8.2126    7.4687 C   0  0  0  0  0  0  0  0  0  0  0  0
    5.0160   -5.3584   10.1838 N   0  0  0  0  0  0  0  0  0  0  0  0
    6.3515   -5.1294    9.9777 C   0  0  0  0  0  0  0  0  0  0  0  0
    6.6408   -3.9522   10.2790 O   0  0  0  0  0  0  0  0  0  0  0  0
    7.5697   -6.1235    9.5533 C   0  0  2  0  0  0  0  0  0  0  0  0
    8.4190   -6.6570   10.7992 C   0  0  0  0  0  0  0  0  0  0  0  0
    9.6002   -7.5678   10.4075 C   0  0  0  0  0  0  0  0  0  0  0  0
    7.6549   -7.4060   11.8962 C   0  0  0  0  0  0  0  0  0  0  0  0
    8.5061   -5.4013    8.5577 N   0  0  0  0  0  0  0  0  0  0  0  0
    9.1411   -4.2067    9.1099 C   0  0  0  0  0  0  0  0  0  0  0  0
    9.1322   -6.1329    7.5228 C   0  0  0  0  0  0  0  0  0  0  0  0
    9.2410   -7.3620    7.6142 O   0  0  0  0  0  0  0  0  0  0  0  0
    9.6288   -5.4762    6.1383 C   0  0  1  0  0  0  0  0  0  0  0  0
   10.4998   -4.2198    6.3592 C   0  0  1  0  0  0  0  0  0  0  0  0
   11.8181   -4.5531    7.0648 C   0  0  0  0  0  0  0  0  0  0  0  0
   10.7490   -3.4046    5.0843 C   0  0  0  0  0  0  0  0  0  0  0  0
   11.3468   -2.0346    5.3985 C   0  0  0  0  0  0  0  0  0  0  0  0
   10.4227   -6.4511    5.3036 O   0  0  0  0  0  0  0  0  0  0  0  0
   10.2578   -7.0148    4.0447 C   0  0  0  0  0  0  0  0  0  0  0  0
   11.2482   -7.1982    3.3378 O   0  0  0  0  0  0  0  0  0  0  0  0
    8.8777   -7.5819    3.6209 C   0  0  2  0  0  0  0  0  0  0  0  0
    8.4707   -8.8498    4.3751 C   0  0  0  0  0  0  0  0  0  0  0  0
    7.0893   -9.4149    3.9614 C   0  0  0  0  0  0  0  0  0  0  0  0
    9.5076   -9.9792    4.3985 C   0  0  0  0  0  0  0  0  0  0  0  0
    8.2639   -8.3197    5.6560 O   0  0  0  0  0  0  0  0  0  0  0  0
    8.3832   -7.6640    2.2250 N   0  0  0  0  0  0  0  0  0  0  0  0
    8.8352   -8.7761    1.3897 C   0  0  0  0  0  0  0  0  0  0  0  0
    7.2247   -6.9368    1.9693 C   0  0  0  0  0  0  0  0  0  0  0  0
    6.8291   -6.0862    2.7609 O   0  0  0  0  0  0  0  0  0  0  0  0
    6.4856   -7.0608    0.6684 C   0  0  2  0  0  0  0  0  0  0  0  0
    7.0506   -5.9788   -0.2726 C   0  0  0  0  0  0  0  0  0  0  0  0
    8.5472   -6.0321   -0.7468 C   0  0  0  0  0  0  0  0  0  0  0  0
    8.7615   -4.9554   -1.8185 C   0  0  0  0  0  0  0  0  0  0  0  0
    9.6955   -5.8097    0.2597 C   0  0  0  0  0  0  0  0  0  0  0  0
    4.9654   -7.0254    0.8018 N   0  0  0  0  0  0  0  0  0  0  0  0
    4.0544   -6.1383    1.3489 C   0  0  0  0  0  0  0  0  0  0  0  0
    3.1549   -5.7684    0.5798 O   0  0  0  0  0  0  0  0  0  0  0  0
    3.9759   -5.7847    2.8841 C   0  0  2  0  0  0  0  0  0  0  0  0
    2.6723   -6.3494    3.5584 C   0  0  0  0  0  0  0  0  0  0  0  0
    2.0555   -5.5660    4.7601 C   0  0  0  0  0  0  0  0  0  0  0  0
    3.0323   -7.7277    4.0692 C   0  0  0  0  0  0  0  0  0  0  0  0
    4.0573   -4.3796    3.2210 N   0  0  0  0  0  0  0  0  0  0  0  0
    3.0648   -3.4810    2.5903 C   0  0  0  0  0  0  0  0  0  0  0  0
    4.5114   -4.1420    4.5406 C   0  0  0  0  0  0  0  0  0  0  0  0
    3.9419   -3.3398    5.2898 O   0  0  0  0  0  0  0  0  0  0  0  0
    8.4574   -2.7194    0.5866 H   0  0  0  0  0  0  0  0  0  0  0  0
    7.2486   -1.6938    1.2651 H   0  0  0  0  0  0  0  0  0  0  0  0
    6.7597   -3.2096    0.5797 H   0  0  0  0  0  0  0  0  0  0  0  0
    8.6963   -2.8960    2.8830 H   0  0  0  0  0  0  0  0  0  0  0  0
    8.2076   -4.4646    2.4009 H   0  0  0  0  0  0  0  0  0  0  0  0
    7.4545   -2.9450    4.5836 H   0  0  0  0  0  0  0  0  0  0  0  0
    5.3663   -2.3729    2.4346 H   0  0  0  0  0  0  0  0  0  0  0  0
    6.5249   -1.2729    3.1329 H   0  0  0  0  0  0  0  0  0  0  0  0
    5.2033   -1.7899    4.1056 H   0  0  0  0  0  0  0  0  0  0  0  0
    6.1674   -4.1900    5.8612 H   0  0  0  0  0  0  0  0  0  0  0  0
    7.2894   -6.4725    5.3191 H   0  0  0  0  0  0  0  0  0  0  0  0
    6.1615   -8.5004    8.1819 H   0  0  0  0  0  0  0  0  0  0  0  0
    7.4533  -10.0605    8.4651 H   0  0  0  0  0  0  0  0  0  0  0  0
    8.4078   -9.6655    7.1678 H   0  0  0  0  0  0  0  0  0  0  0  0
    7.3269  -12.0671    7.5195 H   0  0  0  0  0  0  0  0  0  0  0  0
    7.4598  -11.5495    5.8656 H   0  0  0  0  0  0  0  0  0  0  0  0
    5.1305  -12.2526    7.0355 H   0  0  0  0  0  0  0  0  0  0  0  0
    5.1406  -11.1621    5.6588 H   0  0  0  0  0  0  0  0  0  0  0  0
    3.6263  -10.8845   10.5279 H   0  0  0  0  0  0  0  0  0  0  0  0
    6.5208  -10.1756   10.2791 H   0  0  0  0  0  0  0  0  0  0  0  0
    5.7374  -11.6180   10.8685 H   0  0  0  0  0  0  0  0  0  0  0  0
    5.6253  -10.1240   11.8066 H   0  0  0  0  0  0  0  0  0  0  0  0
    2.1504   -9.4980   11.5420 H   0  0  0  0  0  0  0  0  0  0  0  0
    1.7119   -9.2940    9.8341 H   0  0  0  0  0  0  0  0  0  0  0  0
    1.9387   -7.8702   10.8889 H   0  0  0  0  0  0  0  0  0  0  0  0
    3.3016   -6.2385   10.8076 H   0  0  0  0  0  0  0  0  0  0  0  0
    2.1800   -5.3490    9.1141 H   0  0  0  0  0  0  0  0  0  0  0  0
    3.4325   -5.4479    7.9633 H   0  0  0  0  0  0  0  0  0  0  0  0
    0.1879   -6.2606    7.8436 H   0  0  0  0  0  0  0  0  0  0  0  0
   -0.8107   -8.0405    6.4705 H   0  0  0  0  0  0  0  0  0  0  0  0
   -0.5511   -9.6075    4.0682 H   0  0  0  0  0  0  0  0  0  0  0  0
   -1.3803   -9.9826    5.5985 H   0  0  0  0  0  0  0  0  0  0  0  0
   -0.1595  -11.9568    3.5873 H   0  0  0  0  0  0  0  0  0  0  0  0
    0.2582  -12.8388    5.8684 H   0  0  0  0  0  0  0  0  0  0  0  0
   -0.8944  -13.8082    4.9723 H   0  0  0  0  0  0  0  0  0  0  0  0
   -1.5495  -11.7694    7.1473 H   0  0  0  0  0  0  0  0  0  0  0  0
   -1.7099  -13.5139    7.2496 H   0  0  0  0  0  0  0  0  0  0  0  0
   -3.8868  -12.2921    6.8316 H   0  0  0  0  0  0  0  0  0  0  0  0
   -3.5213  -13.5669    5.6743 H   0  0  0  0  0  0  0  0  0  0  0  0
   -3.3356  -10.5622    5.2474 H   0  0  0  0  0  0  0  0  0  0  0  0
   -4.3654  -11.6986    4.4150 H   0  0  0  0  0  0  0  0  0  0  0  0
   -2.4125  -11.0151    3.0048 H   0  0  0  0  0  0  0  0  0  0  0  0
   -2.4585  -12.7507    3.2936 H   0  0  0  0  0  0  0  0  0  0  0  0
    2.9184  -10.0743    6.3301 H   0  0  0  0  0  0  0  0  0  0  0  0
    3.8840   -8.2320    7.6301 H   0  0  0  0  0  0  0  0  0  0  0  0
    4.6181   -4.4699   10.4564 H   0  0  0  0  0  0  0  0  0  0  0  0
    7.1870   -6.9559    8.9834 H   0  0  0  0  0  0  0  0  0  0  0  0
    8.8524   -5.7897   11.3083 H   0  0  0  0  0  0  0  0  0  0  0  0
    9.2581   -8.4386    9.8366 H   0  0  0  0  0  0  0  0  0  0  0  0
   10.1160   -7.9546   11.2948 H   0  0  0  0  0  0  0  0  0  0  0  0
   10.3565   -7.0296    9.8299 H   0  0  0  0  0  0  0  0  0  0  0  0
    7.4380   -8.4362   11.5999 H   0  0  0  0  0  0  0  0  0  0  0  0
    6.7337   -6.8988   12.1872 H   0  0  0  0  0  0  0  0  0  0  0  0
    8.2765   -7.4902   12.7966 H   0  0  0  0  0  0  0  0  0  0  0  0
    8.9252   -4.0703   10.1711 H   0  0  0  0  0  0  0  0  0  0  0  0
    8.7755   -3.3223    8.5880 H   0  0  0  0  0  0  0  0  0  0  0  0
   10.2249   -4.3016    9.0613 H   0  0  0  0  0  0  0  0  0  0  0  0
    8.7474   -5.1877    5.5661 H   0  0  0  0  0  0  0  0  0  0  0  0
    9.9298   -3.5378    6.9848 H   0  0  0  0  0  0  0  0  0  0  0  0
   12.6011   -4.8232    6.3520 H   0  0  0  0  0  0  0  0  0  0  0  0
   11.7100   -5.3815    7.7714 H   0  0  0  0  0  0  0  0  0  0  0  0
   12.1634   -3.6866    7.6408 H   0  0  0  0  0  0  0  0  0  0  0  0
    9.7930   -3.2395    4.5892 H   0  0  0  0  0  0  0  0  0  0  0  0
   11.3931   -3.9463    4.3856 H   0  0  0  0  0  0  0  0  0  0  0  0
   10.7081   -1.4791    6.0958 H   0  0  0  0  0  0  0  0  0  0  0  0
   11.4429   -1.4387    4.4868 H   0  0  0  0  0  0  0  0  0  0  0  0
   12.3391   -2.1254    5.8494 H   0  0  0  0  0  0  0  0  0  0  0  0
    8.3131   -6.7638    4.0202 H   0  0  0  0  0  0  0  0  0  0  0  0
    6.6699  -10.0492    4.7268 H   0  0  0  0  0  0  0  0  0  0  0  0
    7.1053  -10.0378    3.0683 H   0  0  0  0  0  0  0  0  0  0  0  0
    6.3377   -8.6309    3.8379 H   0  0  0  0  0  0  0  0  0  0  0  0
    9.2303  -10.7710    5.0998 H   0  0  0  0  0  0  0  0  0  0  0  0
   10.4867   -9.6308    4.7367 H   0  0  0  0  0  0  0  0  0  0  0  0
    9.6228  -10.4570    3.4218 H   0  0  0  0  0  0  0  0  0  0  0  0
    9.1099   -8.2703    6.1611 H   0  0  0  0  0  0  0  0  0  0  0  0
    9.8421   -9.0759    1.6820 H   0  0  0  0  0  0  0  0  0  0  0  0
    8.8414   -8.4959    0.3398 H   0  0  0  0  0  0  0  0  0  0  0  0
    8.1452   -9.6161    1.4661 H   0  0  0  0  0  0  0  0  0  0  0  0
    6.6631   -8.0470    0.2371 H   0  0  0  0  0  0  0  0  0  0  0  0
    6.4207   -5.9762   -1.1703 H   0  0  0  0  0  0  0  0  0  0  0  0
    6.8747   -5.0250    0.2051 H   0  0  0  0  0  0  0  0  0  0  0  0
    8.7033   -7.0033   -1.2287 H   0  0  0  0  0  0  0  0  0  0  0  0
    8.7720   -3.9560   -1.3709 H   0  0  0  0  0  0  0  0  0  0  0  0
    7.9843   -4.9870   -2.5835 H   0  0  0  0  0  0  0  0  0  0  0  0
    9.7287   -5.1047   -2.3124 H   0  0  0  0  0  0  0  0  0  0  0  0
    9.5045   -4.9943    0.9526 H   0  0  0  0  0  0  0  0  0  0  0  0
   10.6308   -5.5625   -0.2576 H   0  0  0  0  0  0  0  0  0  0  0  0
    9.9649   -6.6899    0.8316 H   0  0  0  0  0  0  0  0  0  0  0  0
    4.5736   -7.2382   -0.1078 H   0  0  0  0  0  0  0  0  0  0  0  0
    4.8000   -6.2958    3.3606 H   0  0  0  0  0  0  0  0  0  0  0  0
    1.8801   -6.4323    2.8074 H   0  0  0  0  0  0  0  0  0  0  0  0
    2.7326   -5.5357    5.6209 H   0  0  0  0  0  0  0  0  0  0  0  0
    1.1297   -6.0334    5.0949 H   0  0  0  0  0  0  0  0  0  0  0  0
    1.7704   -4.5330    4.5407 H   0  0  0  0  0  0  0  0  0  0  0  0
    3.6312   -8.2984    3.3596 H   0  0  0  0  0  0  0  0  0  0  0  0
    2.1197   -8.2798    4.2629 H   0  0  0  0  0  0  0  0  0  0  0  0
    3.6229   -7.6305    4.9845 H   0  0  0  0  0  0  0  0  0  0  0  0
    2.0491   -3.8806    2.6445 H   0  0  0  0  0  0  0  0  0  0  0  0
    3.3128   -3.3570    1.5314 H   0  0  0  0  0  0  0  0  0  0  0  0
    3.0629   -2.4932    3.0623 H   0  0  0  0  0  0  0  0  0  0  0  0
  1  2  1  0  0  0  0
  1 82  1  0  0  0  0
  1 83  1  0  0  0  0
  1 84  1  0  0  0  0
  2 85  1  0  0  0  0
  2 86  1  0  0  0  0
  3  4  1  0  0  0  0
  3  2  1  0  0  0  0
  3 87  1  6  0  0  0
  4 88  1  0  0  0  0
  4 89  1  0  0  0  0
  4 90  1  0  0  0  0
  5  6  1  0  0  0  0
  5 80  1  0  0  0  0
  5  3  1  0  0  0  0
  5 91  1  1  0  0  0
  6  7  1  0  0  0  0
  6 92  1  0  0  0  0
  7  8  2  0  0  0  0
  7  9  1  0  0  0  0
  9 10  1  0  0  0  0
  9 13  1  0  0  0  0
  9 93  1  1  0  0  0
 10 11  1  0  0  0  0
 10 94  1  0  0  0  0
 10 95  1  0  0  0  0
 11 12  1  0  0  0  0
 11 96  1  0  0  0  0
 11 97  1  0  0  0  0
 12 13  1  0  0  0  0
 12 98  1  0  0  0  0
 12 99  1  0  0  0  0
 13 14  1  0  0  0  0
 14 15  2  0  0  0  0
 14 16  1  0  0  0  0
 16 17  1  0  0  0  0
 16 18  1  0  0  0  0
 16100  1  1  0  0  0
 17101  1  0  0  0  0
 17102  1  0  0  0  0
 17103  1  0  0  0  0
 18 19  1  0  0  0  0
 18 20  1  0  0  0  0
 19104  1  0  0  0  0
 19105  1  0  0  0  0
 19106  1  0  0  0  0
 20 21  2  0  0  0  0
 20 22  1  0  0  0  0
 22 38  1  0  0  0  0
 22 23  1  0  0  0  0
 22107  1  1  0  0  0
 23 24  1  0  0  0  0
 23108  1  0  0  0  0
 23109  1  0  0  0  0
 24 25  1  0  0  0  0
 24 37  2  0  0  0  0
 25 26  2  0  0  0  0
 25110  1  0  0  0  0
 26 27  1  0  0  0  0
 26111  1  0  0  0  0
 27 28  1  0  0  0  0
 27 36  2  0  0  0  0
 28 29  1  0  0  0  0
 29 30  1  0  0  0  0
 29112  1  0  0  0  0
 29113  1  0  0  0  0
 30 31  1  0  0  0  0
 30 35  1  0  0  0  0
 30114  1  0  0  0  0
 31 32  1  0  0  0  0
 31115  1  0  0  0  0
 31116  1  0  0  0  0
 32 33  1  0  0  0  0
 32117  1  0  0  0  0
 32118  1  0  0  0  0
 33 34  1  0  0  0  0
 33119  1  0  0  0  0
 33120  1  0  0  0  0
 34 35  1  0  0  0  0
 34121  1  0  0  0  0
 34122  1  0  0  0  0
 35123  1  0  0  0  0
 35124  1  0  0  0  0
 36 37  1  0  0  0  0
 36125  1  0  0  0  0
 37126  1  0  0  0  0
 38 39  1  0  0  0  0
 38127  1  0  0  0  0
 39 40  2  0  0  0  0
 39 41  1  0  0  0  0
 41 45  1  0  0  0  0
 41 42  1  0  0  0  0
 41128  1  6  0  0  0
 42 43  1  0  0  0  0
 42 44  1  0  0  0  0
 42129  1  0  0  0  0
 43130  1  0  0  0  0
 43131  1  0  0  0  0
 43132  1  0  0  0  0
 44133  1  0  0  0  0
 44134  1  0  0  0  0
 44135  1  0  0  0  0
 45 46  1  0  0  0  0
 45 47  1  0  0  0  0
 46136  1  0  0  0  0
 46137  1  0  0  0  0
 46138  1  0  0  0  0
 47 48  2  0  0  0  0
 47 49  1  0  0  0  0
 49 50  1  0  0  0  0
 49 54  1  0  0  0  0
 49139  1  6  0  0  0
 50 51  1  0  0  0  0
 50 52  1  0  0  0  0
 50140  1  1  0  0  0
 51141  1  0  0  0  0
 51142  1  0  0  0  0
 51143  1  0  0  0  0
 52 53  1  0  0  0  0
 52144  1  0  0  0  0
 52145  1  0  0  0  0
 53146  1  0  0  0  0
 53147  1  0  0  0  0
 53148  1  0  0  0  0
 54 55  1  0  0  0  0
 55 56  2  0  0  0  0
 55 57  1  0  0  0  0
 57 62  1  0  0  0  0
 57 58  1  0  0  0  0
 57149  1  1  0  0  0
 58 59  1  0  0  0  0
 58 60  1  0  0  0  0
 58 61  1  0  0  0  0
 59150  1  0  0  0  0
 59151  1  0  0  0  0
 59152  1  0  0  0  0
 60153  1  0  0  0  0
 60154  1  0  0  0  0
 60155  1  0  0  0  0
 61156  1  0  0  0  0
 62 63  1  0  0  0  0
 62 64  1  0  0  0  0
 63157  1  0  0  0  0
 63158  1  0  0  0  0
 63159  1  0  0  0  0
 64 65  2  0  0  0  0
 64 66  1  0  0  0  0
 66 71  1  0  0  0  0
 66 67  1  0  0  0  0
 66160  1  6  0  0  0
 67 68  1  0  0  0  0
 67161  1  0  0  0  0
 67162  1  0  0  0  0
 68 69  1  0  0  0  0
 68 70  1  0  0  0  0
 68163  1  0  0  0  0
 69164  1  0  0  0  0
 69165  1  0  0  0  0
 69166  1  0  0  0  0
 70167  1  0  0  0  0
 70168  1  0  0  0  0
 70169  1  0  0  0  0
 71 72  1  0  0  0  0
 71170  1  0  0  0  0
 72 73  2  0  0  0  0
 72 74  1  0  0  0  0
 74 78  1  0  0  0  0
 74 75  1  0  0  0  0
 74171  1  1  0  0  0
 75 76  1  0  0  0  0
 75 77  1  0  0  0  0
 75172  1  0  0  0  0
 76173  1  0  0  0  0
 76174  1  0  0  0  0
 76175  1  0  0  0  0
 77176  1  0  0  0  0
 77177  1  0  0  0  0
 77178  1  0  0  0  0
 78 79  1  0  0  0  0
 78 80  1  0  0  0  0
 79179  1  0  0  0  0
 79180  1  0  0  0  0
 79181  1  0  0  0  0
 80 81  2  0  0  0  0
M  END
>  <Energy>
751.256

$$$$