84
 OpenBabel03292021533D

196196  0  0  1  0  0  0  0  0999 V2000
    3.1432    3.6608   -0.5353 C   0  0  0  0  0  0  0  0  0  0  0  0
    3.1066    4.5813    0.7086 C   0  0  0  0  0  0  0  0  0  0  0  0
    4.2276    5.1362    1.6661 C   0  0  0  0  0  0  0  0  0  0  0  0
    5.5323    4.9083    2.0133 C   0  0  0  0  0  0  0  0  0  0  0  0
    6.4738    5.8303    3.1682 C   0  0  0  0  0  0  0  0  0  0  0  0
    7.8354    5.8010    4.4126 C   0  0  1  0  0  0  0  0  0  0  0  0
    8.6853    4.6102    3.8702 C   0  0  0  0  0  0  0  0  0  0  0  0
    8.8781    7.2410    4.9661 C   0  0  1  0  0  0  0  0  0  0  0  0
    8.5718    8.3731    4.1363 O   0  0  0  0  0  0  0  0  0  0  0  0
   10.0447    7.6466    6.4139 C   0  0  1  0  0  0  0  0  0  0  0  0
   10.2369    8.6210    8.0344 C   0  0  0  0  0  0  0  0  0  0  0  0
    9.2709    8.7236    8.8044 O   0  0  0  0  0  0  0  0  0  0  0  0
   11.6188    9.0790    8.6383 N   0  0  0  0  0  0  0  0  0  0  0  0
   12.0816    9.9926   10.1009 C   0  0  1  0  0  0  0  0  0  0  0  0
   12.1954   11.5381    9.9385 C   0  0  0  0  0  0  0  0  0  0  0  0
   13.0683    9.6373   11.5495 C   0  0  0  0  0  0  0  0  0  0  0  0
   12.4959    8.9581   12.4152 O   0  0  0  0  0  0  0  0  0  0  0  0
   14.3539   10.0802   11.9881 N   0  0  0  0  0  0  0  0  0  0  0  0
   15.1854   11.1853   11.5049 C   0  0  0  0  0  0  0  0  0  0  0  0
   15.0754    9.2715   13.0688 C   0  0  0  0  0  0  0  0  0  0  0  0
   14.7571    8.8033   14.5458 C   0  0  0  0  0  0  0  0  0  0  0  0
   14.8580    7.5796   14.7410 O   0  0  0  0  0  0  0  0  0  0  0  0
   14.5339    9.6556   15.6370 N   0  0  0  0  0  0  0  0  0  0  0  0
   14.7023   11.0928   15.5710 C   0  0  0  0  0  0  0  0  0  0  0  0
   14.2322    9.0420   16.9953 C   0  0  2  0  0  0  0  0  0  0  0  0
   12.8116    9.3799   17.5520 C   0  0  0  0  0  0  0  0  0  0  0  0
   11.6584    8.6388   16.8579 C   0  0  0  0  0  0  0  0  0  0  0  0
   10.2869    9.0125   17.4175 C   0  0  0  0  0  0  0  0  0  0  0  0
   11.6270    8.9402   15.3812 C   0  0  0  0  0  0  0  0  0  0  0  0
   15.2400    9.3882   18.1335 C   0  0  0  0  0  0  0  0  0  0  0  0
   15.5452   10.5609   18.3820 O   0  0  0  0  0  0  0  0  0  0  0  0
   15.7574    8.4399   18.9830 N   0  0  0  0  0  0  0  0  0  0  0  0
   15.9939    6.9847   18.7983 C   0  0  2  0  0  0  0  0  0  0  0  0
   16.6572    6.6795   17.4371 C   0  0  0  0  0  0  0  0  0  0  0  0
   16.8438    5.1868   17.1736 C   0  0  0  0  0  0  0  0  0  0  0  0
   17.9796    7.4283   17.2480 C   0  0  0  0  0  0  0  0  0  0  0  0
   14.6781    6.1908   19.0054 C   0  0  0  0  0  0  0  0  0  0  0  0
   13.7208    6.4172   18.2620 O   0  0  0  0  0  0  0  0  0  0  0  0
   14.5285    5.2821   20.0505 N   0  0  0  0  0  0  0  0  0  0  0  0
   15.6119    4.6771   20.8221 C   0  0  0  0  0  0  0  0  0  0  0  0
   13.1513    4.7537   20.2595 C   0  0  2  0  0  0  0  0  0  0  0  0
   12.6077    5.0286   21.6728 C   0  0  0  0  0  0  0  0  0  0  0  0
   12.5144    6.5338   22.0120 C   0  0  0  0  0  0  0  0  0  0  0  0
   11.5692    7.3188   21.0949 C   0  0  0  0  0  0  0  0  0  0  0  0
   12.0541    6.7030   23.4593 C   0  0  0  0  0  0  0  0  0  0  0  0
   12.9897    3.2620   19.8911 C   0  0  0  0  0  0  0  0  0  0  0  0
   13.6115    2.3690   20.4760 O   0  0  0  0  0  0  0  0  0  0  0  0
   12.1470    2.8906   18.8793 N   0  0  0  0  0  0  0  0  0  0  0  0
   11.3868    3.7324   17.9380 C   0  0  1  0  0  0  0  0  0  0  0  0
   11.3574    3.0357   16.5981 C   0  0  0  0  0  0  0  0  0  0  0  0
   10.0692    4.2284   18.6135 C   0  0  0  0  0  0  0  0  0  0  0  0
   10.1157    4.7069   19.7579 O   0  0  0  0  0  0  0  0  0  0  0  0
    8.8299    4.2811   18.0671 N   0  0  0  0  0  0  0  0  0  0  0  0
    8.1093    3.3204   17.2298 C   0  0  2  0  0  0  0  0  0  0  0  0
    8.3212    1.8711   17.6704 C   0  0  0  0  0  0  0  0  0  0  0  0
    8.2730    3.5839   15.7092 C   0  0  0  0  0  0  0  0  0  0  0  0
    8.8393    2.7423   15.0120 O   0  0  0  0  0  0  0  0  0  0  0  0
    7.7763    4.8012   15.2244 N   0  0  0  0  0  0  0  0  0  0  0  0
    6.3271    4.9826   15.3350 C   0  0  0  0  0  0  0  0  0  0  0  0
    8.3486    5.4205   13.9876 C   0  0  1  0  0  0  0  0  0  0  0  0
    9.8177    5.8411   14.1210 C   0  0  0  0  0  0  0  0  0  0  0  0
   10.4629    6.3841   12.8305 C   0  0  0  0  0  0  0  0  0  0  0  0
    9.9306    7.7517   12.4115 C   0  0  0  0  0  0  0  0  0  0  0  0
   11.9894    6.2822   12.9473 C   0  0  0  0  0  0  0  0  0  0  0  0
    7.8628    4.6984   12.7007 C   0  0  0  0  0  0  0  0  0  0  0  0
    6.8698    5.1581   12.1143 O   0  0  0  0  0  0  0  0  0  0  0  0
    8.4009    3.4775   12.3395 N   0  0  0  0  0  0  0  0  0  0  0  0
    9.8376    3.2034   12.4587 C   0  0  0  0  0  0  0  0  0  0  0  0
    7.7392    2.6392   11.3478 C   0  0  1  0  0  0  0  0  0  0  0  0
    6.2165    2.4130   11.3609 C   0  0  0  0  0  0  0  0  0  0  0  0
    5.7870    1.4650   10.2085 C   0  0  0  0  0  0  0  0  0  0  0  0
    6.3979    0.0660   10.3312 C   0  0  0  0  0  0  0  0  0  0  0  0
    4.2781    1.4196   10.1258 C   0  0  0  0  0  0  0  0  0  0  0  0
    8.4233    2.8332    9.9757 C   0  0  0  0  0  0  0  0  0  0  0  0
    9.3090    2.0221    9.7829 O   0  0  0  0  0  0  0  0  0  0  0  0
    8.2338    3.9316    9.1819 N   0  0  0  0  0  0  0  0  0  0  0  0
    6.8797    4.4239    8.8578 C   0  0  0  0  0  0  0  0  0  0  0  0
    9.4319    4.6902    8.6739 C   0  0  1  0  0  0  0  0  0  0  0  0
   10.6951    3.8660    8.3782 C   0  0  0  0  0  0  0  0  0  0  0  0
   11.6744    3.7119    9.5302 C   0  0  0  0  0  0  0  0  0  0  0  0
   10.4808    2.7035    7.4009 C   0  0  0  0  0  0  0  0  0  0  0  0
    9.2583    5.7492    7.5156 C   0  0  0  0  0  0  0  0  0  0  0  0
    8.1160    6.2453    7.3216 O   0  0  0  0  0  0  0  0  0  0  0  0
   10.3887    6.3107    6.9168 N   0  0  0  0  0  0  0  0  0  0  0  0
   11.2468    5.5643    5.9499 C   0  0  0  0  0  0  0  0  0  0  0  0
    2.1516    3.7067   -1.0319 H   0  0  0  0  0  0  0  0  0  0  0  0
    3.2802    2.6011   -0.2983 H   0  0  0  0  0  0  0  0  0  0  0  0
    3.8587    3.9721   -1.2997 H   0  0  0  0  0  0  0  0  0  0  0  0
    2.3314    4.1394    1.3543 H   0  0  0  0  0  0  0  0  0  0  0  0
    2.6295    5.4912    0.3086 H   0  0  0  0  0  0  0  0  0  0  0  0
    3.7704    5.9568    2.2217 H   0  0  0  0  0  0  0  0  0  0  0  0
    6.0515    4.0747    1.5316 H   0  0  0  0  0  0  0  0  0  0  0  0
    7.2184    5.9194    2.3649 H   0  0  0  0  0  0  0  0  0  0  0  0
    6.1484    4.9464    3.7523 H   0  0  0  0  0  0  0  0  0  0  0  0
    7.3187    5.4634    5.3176 H   0  0  0  0  0  0  0  0  0  0  0  0
    9.3809    4.9351    3.0898 H   0  0  0  0  0  0  0  0  0  0  0  0
    8.0528    3.8356    3.4086 H   0  0  0  0  0  0  0  0  0  0  0  0
    9.2177    4.0854    4.6551 H   0  0  0  0  0  0  0  0  0  0  0  0
    9.7148    6.8515    4.3739 H   0  0  0  0  0  0  0  0  0  0  0  0
    8.5958    8.0433    3.2151 H   0  0  0  0  0  0  0  0  0  0  0  0
   10.9095    8.1018    5.8761 H   0  0  0  0  0  0  0  0  0  0  0  0
   12.3420    8.4023    8.4427 H   0  0  0  0  0  0  0  0  0  0  0  0
   11.0930    9.9151   10.5778 H   0  0  0  0  0  0  0  0  0  0  0  0
   13.0738   11.9485   10.4465 H   0  0  0  0  0  0  0  0  0  0  0  0
   11.3854   12.0371   10.4938 H   0  0  0  0  0  0  0  0  0  0  0  0
   12.2115   11.9052    8.9159 H   0  0  0  0  0  0  0  0  0  0  0  0
   15.0258   12.0465   12.1665 H   0  0  0  0  0  0  0  0  0  0  0  0
   15.0045   11.4418   10.4673 H   0  0  0  0  0  0  0  0  0  0  0  0
   16.2537   10.9302   11.5913 H   0  0  0  0  0  0  0  0  0  0  0  0
   16.0801    9.7085   13.1993 H   0  0  0  0  0  0  0  0  0  0  0  0
   15.2756    8.3239   12.5453 H   0  0  0  0  0  0  0  0  0  0  0  0
   14.4208   11.4620   14.5858 H   0  0  0  0  0  0  0  0  0  0  0  0
   15.7523   11.3341   15.7631 H   0  0  0  0  0  0  0  0  0  0  0  0
   14.0811   11.5868   16.3231 H   0  0  0  0  0  0  0  0  0  0  0  0
   14.2460    7.9722   16.8512 H   0  0  0  0  0  0  0  0  0  0  0  0
   12.7710    9.1147   18.6186 H   0  0  0  0  0  0  0  0  0  0  0  0
   12.6314   10.4598   17.5139 H   0  0  0  0  0  0  0  0  0  0  0  0
   11.7917    7.5580   16.9938 H   0  0  0  0  0  0  0  0  0  0  0  0
   10.0702   10.0721   17.2436 H   0  0  0  0  0  0  0  0  0  0  0  0
   10.2133    8.8050   18.4865 H   0  0  0  0  0  0  0  0  0  0  0  0
    9.5051    8.4322   16.9097 H   0  0  0  0  0  0  0  0  0  0  0  0
   11.6237   10.0111   15.1634 H   0  0  0  0  0  0  0  0  0  0  0  0
   10.7418    8.4974   14.9488 H   0  0  0  0  0  0  0  0  0  0  0  0
   12.4670    8.4785   14.8867 H   0  0  0  0  0  0  0  0  0  0  0  0
   16.3443    8.8806   19.6812 H   0  0  0  0  0  0  0  0  0  0  0  0
   16.7062    6.7443   19.5885 H   0  0  0  0  0  0  0  0  0  0  0  0
   16.0016    7.0279   16.6484 H   0  0  0  0  0  0  0  0  0  0  0  0
   17.5326    4.7318   17.8902 H   0  0  0  0  0  0  0  0  0  0  0  0
   17.2426    5.0328   16.1642 H   0  0  0  0  0  0  0  0  0  0  0  0
   15.8892    4.6527   17.2192 H   0  0  0  0  0  0  0  0  0  0  0  0
   18.7452    7.0758   17.9455 H   0  0  0  0  0  0  0  0  0  0  0  0
   17.8601    8.5075   17.3907 H   0  0  0  0  0  0  0  0  0  0  0  0
   18.3521    7.2862   16.2270 H   0  0  0  0  0  0  0  0  0  0  0  0
   16.5746    5.1544   20.6599 H   0  0  0  0  0  0  0  0  0  0  0  0
   15.7234    3.6301   20.5277 H   0  0  0  0  0  0  0  0  0  0  0  0
   15.3811    4.7327   21.8894 H   0  0  0  0  0  0  0  0  0  0  0  0
   12.4842    5.2978   19.6037 H   0  0  0  0  0  0  0  0  0  0  0  0
   11.6147    4.5724   21.7759 H   0  0  0  0  0  0  0  0  0  0  0  0
   13.2325    4.5215   22.4178 H   0  0  0  0  0  0  0  0  0  0  0  0
   13.5144    6.9750   21.9235 H   0  0  0  0  0  0  0  0  0  0  0  0
   10.5372    6.9647   21.1857 H   0  0  0  0  0  0  0  0  0  0  0  0
   11.8570    7.2539   20.0433 H   0  0  0  0  0  0  0  0  0  0  0  0
   11.5804    8.3827   21.3555 H   0  0  0  0  0  0  0  0  0  0  0  0
   11.0403    6.3119   23.5986 H   0  0  0  0  0  0  0  0  0  0  0  0
   12.0518    7.7608   23.7415 H   0  0  0  0  0  0  0  0  0  0  0  0
   12.7220    6.1726   24.1449 H   0  0  0  0  0  0  0  0  0  0  0  0
   12.0901    1.8870   18.7626 H   0  0  0  0  0  0  0  0  0  0  0  0
   11.9639    4.6461   17.7640 H   0  0  0  0  0  0  0  0  0  0  0  0
   10.8764    2.0572   16.6308 H   0  0  0  0  0  0  0  0  0  0  0  0
   12.3762    2.8676   16.2283 H   0  0  0  0  0  0  0  0  0  0  0  0
   10.8649    3.6600   15.8658 H   0  0  0  0  0  0  0  0  0  0  0  0
    8.2256    4.7487   18.7329 H   0  0  0  0  0  0  0  0  0  0  0  0
    7.0542    3.5128   17.4499 H   0  0  0  0  0  0  0  0  0  0  0  0
    9.3320    1.6715   18.0303 H   0  0  0  0  0  0  0  0  0  0  0  0
    8.0975    1.1612   16.8694 H   0  0  0  0  0  0  0  0  0  0  0  0
    7.6556    1.6388   18.5119 H   0  0  0  0  0  0  0  0  0  0  0  0
    5.9388    4.6631   16.2933 H   0  0  0  0  0  0  0  0  0  0  0  0
    5.8466    4.3576   14.5612 H   0  0  0  0  0  0  0  0  0  0  0  0
    6.0642    6.0273   15.1721 H   0  0  0  0  0  0  0  0  0  0  0  0
    7.8428    6.3982   13.9288 H   0  0  0  0  0  0  0  0  0  0  0  0
   10.4257    5.0304   14.5079 H   0  0  0  0  0  0  0  0  0  0  0  0
    9.8812    6.5914   14.9171 H   0  0  0  0  0  0  0  0  0  0  0  0
   10.2081    5.7499   11.9851 H   0  0  0  0  0  0  0  0  0  0  0  0
   10.0165    8.5245   13.1720 H   0  0  0  0  0  0  0  0  0  0  0  0
    8.8742    7.6949   12.1378 H   0  0  0  0  0  0  0  0  0  0  0  0
   10.4598    8.0937   11.5223 H   0  0  0  0  0  0  0  0  0  0  0  0
   12.3653    6.7176   13.8732 H   0  0  0  0  0  0  0  0  0  0  0  0
   12.4980    6.7394   12.0957 H   0  0  0  0  0  0  0  0  0  0  0  0
   12.3048    5.2337   12.9543 H   0  0  0  0  0  0  0  0  0  0  0  0
   10.2760    3.4756   13.4115 H   0  0  0  0  0  0  0  0  0  0  0  0
   10.3505    3.7750   11.6997 H   0  0  0  0  0  0  0  0  0  0  0  0
   10.0586    2.1393   12.3050 H   0  0  0  0  0  0  0  0  0  0  0  0
    8.0725    1.6438   11.6650 H   0  0  0  0  0  0  0  0  0  0  0  0
    5.6572    3.3504   11.3062 H   0  0  0  0  0  0  0  0  0  0  0  0
    5.9250    1.9776   12.3223 H   0  0  0  0  0  0  0  0  0  0  0  0
    6.1347    1.8599    9.2472 H   0  0  0  0  0  0  0  0  0  0  0  0
    6.1741   -0.3882   11.2993 H   0  0  0  0  0  0  0  0  0  0  0  0
    7.4866    0.0903   10.2131 H   0  0  0  0  0  0  0  0  0  0  0  0
    6.0196   -0.5878    9.5395 H   0  0  0  0  0  0  0  0  0  0  0  0
    3.8286    1.0946   11.0698 H   0  0  0  0  0  0  0  0  0  0  0  0
    3.9517    0.7365    9.3309 H   0  0  0  0  0  0  0  0  0  0  0  0
    3.8814    2.4141    9.8830 H   0  0  0  0  0  0  0  0  0  0  0  0
    6.1092    4.0055    9.4897 H   0  0  0  0  0  0  0  0  0  0  0  0
    6.6573    4.1017    7.8399 H   0  0  0  0  0  0  0  0  0  0  0  0
    6.8043    5.5022    8.9643 H   0  0  0  0  0  0  0  0  0  0  0  0
    9.6372    5.3620    9.5130 H   0  0  0  0  0  0  0  0  0  0  0  0
   11.3346    4.5263    7.8302 H   0  0  0  0  0  0  0  0  0  0  0  0
   11.5243    2.8213   10.1282 H   0  0  0  0  0  0  0  0  0  0  0  0
   11.6407    4.6083   10.1661 H   0  0  0  0  0  0  0  0  0  0  0  0
   12.6963    3.6797    9.1359 H   0  0  0  0  0  0  0  0  0  0  0  0
   10.1605    1.7688    7.8487 H   0  0  0  0  0  0  0  0  0  0  0  0
   11.4111    2.4894    6.8707 H   0  0  0  0  0  0  0  0  0  0  0  0
    9.7213    2.9647    6.6577 H   0  0  0  0  0  0  0  0  0  0  0  0
   12.2224    5.4079    6.3951 H   0  0  0  0  0  0  0  0  0  0  0  0
   11.4292    6.1135    5.0288 H   0  0  0  0  0  0  0  0  0  0  0  0
   10.7741    4.6276    5.6999 H   0  0  0  0  0  0  0  0  0  0  0  0
  1  2  1  0  0  0  0
  1 86  1  0  0  0  0
  1 87  1  0  0  0  0
  1 88  1  0  0  0  0
  2  3  1  0  0  0  0
  2 89  1  0  0  0  0
  2 90  1  0  0  0  0
  3  4  2  0  0  0  0
  3 91  1  0  0  0  0
  4  5  1  0  0  0  0
  4 92  1  0  0  0  0
  5  6  1  0  0  0  0
  5 93  1  0  0  0  0
  5 94  1  0  0  0  0
  6  7  1  0  0  0  0
  6  8  1  0  0  0  0
  6 95  1  1  0  0  0
  7 96  1  0  0  0  0
  7 97  1  0  0  0  0
  7 98  1  0  0  0  0
  8  9  1  0  0  0  0
  8 10  1  0  0  0  0
  8 99  1  6  0  0  0
  9100  1  0  0  0  0
 10 11  1  0  0  0  0
 10 84  1  0  0  0  0
 10101  1  6  0  0  0
 11 12  2  0  0  0  0
 11 13  1  0  0  0  0
 13 14  1  0  0  0  0
 13102  1  0  0  0  0
 14 15  1  0  0  0  0
 14 16  1  0  0  0  0
 14103  1  6  0  0  0
 15104  1  0  0  0  0
 15105  1  0  0  0  0
 15106  1  0  0  0  0
 16 17  2  0  0  0  0
 16 18  1  0  0  0  0
 18 19  1  0  0  0  0
 18 20  1  0  0  0  0
 19107  1  0  0  0  0
 19108  1  0  0  0  0
 19109  1  0  0  0  0
 20 21  1  0  0  0  0
 20110  1  0  0  0  0
 20111  1  0  0  0  0
 21 22  2  0  0  0  0
 21 23  1  0  0  0  0
 23 24  1  0  0  0  0
 23 25  1  0  0  0  0
 24112  1  0  0  0  0
 24113  1  0  0  0  0
 24114  1  0  0  0  0
 25 30  1  0  0  0  0
 25 26  1  0  0  0  0
 25115  1  6  0  0  0
 26 27  1  0  0  0  0
 26116  1  0  0  0  0
 26117  1  0  0  0  0
 27 28  1  0  0  0  0
 27 29  1  0  0  0  0
 27118  1  0  0  0  0
 28119  1  0  0  0  0
 28120  1  0  0  0  0
 28121  1  0  0  0  0
 29122  1  0  0  0  0
 29123  1  0  0  0  0
 29124  1  0  0  0  0
 30 31  2  0  0  0  0
 30 32  1  0  0  0  0
 32 33  1  0  0  0  0
 32125  1  0  0  0  0
 33 37  1  0  0  0  0
 33 34  1  0  0  0  0
 33126  1  1  0  0  0
 34 35  1  0  0  0  0
 34 36  1  0  0  0  0
 34127  1  0  0  0  0
 35128  1  0  0  0  0
 35129  1  0  0  0  0
 35130  1  0  0  0  0
 36131  1  0  0  0  0
 36132  1  0  0  0  0
 36133  1  0  0  0  0
 37 38  2  0  0  0  0
 37 39  1  0  0  0  0
 39 40  1  0  0  0  0
 39 41  1  0  0  0  0
 40134  1  0  0  0  0
 40135  1  0  0  0  0
 40136  1  0  0  0  0
 41 46  1  0  0  0  0
 41 42  1  0  0  0  0
 41137  1  6  0  0  0
 42 43  1  0  0  0  0
 42138  1  0  0  0  0
 42139  1  0  0  0  0
 43 44  1  0  0  0  0
 43 45  1  0  0  0  0
 43140  1  0  0  0  0
 44141  1  0  0  0  0
 44142  1  0  0  0  0
 44143  1  0  0  0  0
 45144  1  0  0  0  0
 45145  1  0  0  0  0
 45146  1  0  0  0  0
 46 47  2  0  0  0  0
 46 48  1  0  0  0  0
 48 49  1  0  0  0  0
 48147  1  0  0  0  0
 49 50  1  0  0  0  0
 49 51  1  0  0  0  0
 49148  1  6  0  0  0
 50149  1  0  0  0  0
 50150  1  0  0  0  0
 50151  1  0  0  0  0
 51 52  2  0  0  0  0
 51 53  1  0  0  0  0
 53 54  1  0  0  0  0
 53152  1  0  0  0  0
 54 56  1  0  0  0  0
 54 55  1  0  0  0  0
 54153  1  1  0  0  0
 55154  1  0  0  0  0
 55155  1  0  0  0  0
 55156  1  0  0  0  0
 56 57  2  0  0  0  0
 56 58  1  0  0  0  0
 58 59  1  0  0  0  0
 58 60  1  0  0  0  0
 59157  1  0  0  0  0
 59158  1  0  0  0  0
 59159  1  0  0  0  0
 60 61  1  0  0  0  0
 60 65  1  0  0  0  0
 60160  1  6  0  0  0
 61 62  1  0  0  0  0
 61161  1  0  0  0  0
 61162  1  0  0  0  0
 62 63  1  0  0  0  0
 62 64  1  0  0  0  0
 62163  1  0  0  0  0
 63164  1  0  0  0  0
 63165  1  0  0  0  0
 63166  1  0  0  0  0
 64167  1  0  0  0  0
 64168  1  0  0  0  0
 64169  1  0  0  0  0
 65 66  2  0  0  0  0
 65 67  1  0  0  0  0
 67 68  1  0  0  0  0
 67 69  1  0  0  0  0
 68170  1  0  0  0  0
 68171  1  0  0  0  0
 68172  1  0  0  0  0
 69 70  1  0  0  0  0
 69 74  1  0  0  0  0
 69173  1  1  0  0  0
 70 71  1  0  0  0  0
 70174  1  0  0  0  0
 70175  1  0  0  0  0
 71 72  1  0  0  0  0
 71 73  1  0  0  0  0
 71176  1  0  0  0  0
 72177  1  0  0  0  0
 72178  1  0  0  0  0
 72179  1  0  0  0  0
 73180  1  0  0  0  0
 73181  1  0  0  0  0
 73182  1  0  0  0  0
 74 75  2  0  0  0  0
 74 76  1  0  0  0  0
 76 77  1  0  0  0  0
 76 78  1  0  0  0  0
 77183  1  0  0  0  0
 77184  1  0  0  0  0
 77185  1  0  0  0  0
 78 79  1  0  0  0  0
 78 82  1  0  0  0  0
 78186  1  1  0  0  0
 79 80  1  0  0  0  0
 79 81  1  0  0  0  0
 79187  1  0  0  0  0
 80188  1  0  0  0  0
 80189  1  0  0  0  0
 80190  1  0  0  0  0
 81191  1  0  0  0  0
 81192  1  0  0  0  0
 81193  1  0  0  0  0
 82 83  2  0  0  0  0
 82 84  1  0  0  0  0
 84 85  1  0  0  0  0
 85194  1  0  0  0  0
 85195  1  0  0  0  0
 85196  1  0  0  0  0
M  END
>  <Energy>
821.063

$$$$