86
 OpenBabel03292021533D

202202  0  0  1  0  0  0  0  0999 V2000
    7.4407    0.9410    2.0663 C   0  0  0  0  0  0  0  0  0  0  0  0
    8.4290    1.9334    1.2780 C   0  0  0  0  0  0  0  0  0  0  0  0
    8.6479    2.7955   -0.2101 C   0  0  0  0  0  0  0  0  0  0  0  0
    8.1169    3.0431   -1.4885 C   0  0  0  0  0  0  0  0  0  0  0  0
    8.6508    4.0866   -2.9703 C   0  0  0  0  0  0  0  0  0  0  0  0
    8.4706    4.4820   -4.8745 C   0  0  1  0  0  0  0  0  0  0  0  0
    6.9473    4.0342   -4.9557 C   0  0  0  0  0  0  0  0  0  0  0  0
    8.8039    5.8110   -6.3607 C   0  0  1  0  0  0  0  0  0  0  0  0
    8.2539    5.1067   -7.5121 O   0  0  0  0  0  0  0  0  0  0  0  0
   10.1835    7.0947   -6.9349 C   0  0  1  0  0  0  0  0  0  0  0  0
   10.6298    8.9122   -7.7546 C   0  0  0  0  0  0  0  0  0  0  0  0
   10.1658    9.8501   -7.0331 O   0  0  0  0  0  0  0  0  0  0  0  0
   11.8887    9.6918   -8.7206 N   0  0  0  0  0  0  0  0  0  0  0  0
   12.4982   11.2748   -9.6741 C   0  0  1  0  0  0  0  0  0  0  0  0
   12.8242   11.8239  -11.4525 C   0  0  0  0  0  0  0  0  0  0  0  0
   13.8664   12.9829  -12.2846 C   0  0  0  0  0  0  0  0  0  0  0  0
   13.3335   12.7152   -9.1111 C   0  0  0  0  0  0  0  0  0  0  0  0
   12.6003   13.6522   -8.7395 O   0  0  0  0  0  0  0  0  0  0  0  0
   14.7172   13.0827   -9.2598 N   0  0  0  0  0  0  0  0  0  0  0  0
   15.7968   12.3087   -9.9086 C   0  0  0  0  0  0  0  0  0  0  0  0
   15.2533   13.9502   -8.1613 C   0  0  0  0  0  0  0  0  0  0  0  0
   14.8514   15.3057   -7.4887 C   0  0  0  0  0  0  0  0  0  0  0  0
   14.9929   15.3334   -6.2551 O   0  0  0  0  0  0  0  0  0  0  0  0
   14.5732   16.4695   -8.1975 N   0  0  0  0  0  0  0  0  0  0  0  0
   14.4985   16.4914   -9.6385 C   0  0  0  0  0  0  0  0  0  0  0  0
   14.2450   17.7355   -7.4712 C   0  0  2  0  0  0  0  0  0  0  0  0
   12.7804   18.1893   -7.7057 C   0  0  0  0  0  0  0  0  0  0  0  0
   11.7484   17.1886   -7.1535 C   0  0  0  0  0  0  0  0  0  0  0  0
   11.7763   17.1793   -5.6349 C   0  0  0  0  0  0  0  0  0  0  0  0
   10.3405   17.5315   -7.6325 C   0  0  0  0  0  0  0  0  0  0  0  0
   15.1866   18.9450   -7.7678 C   0  0  0  0  0  0  0  0  0  0  0  0
   15.3606   19.3280   -8.9313 O   0  0  0  0  0  0  0  0  0  0  0  0
   15.7981   19.6674   -6.7584 N   0  0  0  0  0  0  0  0  0  0  0  0
   16.0936   19.3097   -5.3432 C   0  0  2  0  0  0  0  0  0  0  0  0
   16.6958   17.8906   -5.2279 C   0  0  0  0  0  0  0  0  0  0  0  0
   16.8337   17.3951   -3.7935 C   0  0  0  0  0  0  0  0  0  0  0  0
   17.9818   17.7141   -6.0341 C   0  0  0  0  0  0  0  0  0  0  0  0
   14.7974   19.4375   -4.5082 C   0  0  0  0  0  0  0  0  0  0  0  0
   13.8833   18.6485   -4.7372 O   0  0  0  0  0  0  0  0  0  0  0  0
   14.5641   20.4274   -3.5813 N   0  0  0  0  0  0  0  0  0  0  0  0
   15.6082   21.1943   -2.9205 C   0  0  0  0  0  0  0  0  0  0  0  0
   13.1785   20.4720   -3.0090 C   0  0  2  0  0  0  0  0  0  0  0  0
   12.5073   21.8412   -3.2456 C   0  0  0  0  0  0  0  0  0  0  0  0
   12.2412   22.1694   -4.7425 C   0  0  0  0  0  0  0  0  0  0  0  0
   11.3572   21.1581   -5.4782 C   0  0  0  0  0  0  0  0  0  0  0  0
   11.5718   23.5359   -4.8689 C   0  0  0  0  0  0  0  0  0  0  0  0
   13.1091   19.9646   -1.5372 C   0  0  0  0  0  0  0  0  0  0  0  0
   13.7265   20.5283   -0.6273 O   0  0  0  0  0  0  0  0  0  0  0  0
   12.4003   18.8284   -1.2082 N   0  0  0  0  0  0  0  0  0  0  0  0
   11.5019   18.0271   -2.0524 C   0  0  1  0  0  0  0  0  0  0  0  0
   11.1881   16.6654   -1.4533 C   0  0  0  0  0  0  0  0  0  0  0  0
   12.2570   15.7385   -0.9276 C   0  0  0  0  0  0  0  0  0  0  0  0
   10.1902   18.8524   -2.3117 C   0  0  0  0  0  0  0  0  0  0  0  0
   10.1831   20.0867   -2.2629 O   0  0  0  0  0  0  0  0  0  0  0  0
    9.0101   18.3017   -2.7412 N   0  0  0  0  0  0  0  0  0  0  0  0
    8.1489   17.4059   -1.9340 C   0  0  2  0  0  0  0  0  0  0  0  0
    8.2048   17.7295   -0.4289 C   0  0  0  0  0  0  0  0  0  0  0  0
    8.2688   15.8769   -2.2824 C   0  0  0  0  0  0  0  0  0  0  0  0
    8.8061   15.0932   -1.5019 O   0  0  0  0  0  0  0  0  0  0  0  0
    7.7600   15.4782   -3.5333 N   0  0  0  0  0  0  0  0  0  0  0  0
    6.3094   15.5708   -3.6410 C   0  0  0  0  0  0  0  0  0  0  0  0
    8.3468   14.2926   -4.2650 C   0  0  1  0  0  0  0  0  0  0  0  0
    9.8074   14.4818   -4.6684 C   0  0  0  0  0  0  0  0  0  0  0  0
   10.5563   13.3285   -5.3755 C   0  0  0  0  0  0  0  0  0  0  0  0
   10.1317   13.2061   -6.8322 C   0  0  0  0  0  0  0  0  0  0  0  0
   12.0753   13.5305   -5.2697 C   0  0  0  0  0  0  0  0  0  0  0  0
    7.9352   12.9333   -3.6792 C   0  0  0  0  0  0  0  0  0  0  0  0
    7.0148   12.3141   -4.2205 O   0  0  0  0  0  0  0  0  0  0  0  0
    8.4849   12.5450   -2.4717 N   0  0  0  0  0  0  0  0  0  0  0  0
    9.9583   12.4758   -2.3391 C   0  0  0  0  0  0  0  0  0  0  0  0
    7.7952   11.5329   -1.6777 C   0  0  1  0  0  0  0  0  0  0  0  0
    6.3159   11.5151   -1.4973 C   0  0  0  0  0  0  0  0  0  0  0  0
    5.9155   10.2947   -0.6594 C   0  0  0  0  0  0  0  0  0  0  0  0
    6.5711   10.2791    0.7505 C   0  0  0  0  0  0  0  0  0  0  0  0
    4.3672   10.2060   -0.6058 C   0  0  0  0  0  0  0  0  0  0  0  0
    8.3627   10.1907   -2.0662 C   0  0  0  0  0  0  0  0  0  0  0  0
    9.3471    9.8916   -1.3082 O   0  0  0  0  0  0  0  0  0  0  0  0
    8.0946    9.5552   -3.2285 N   0  0  0  0  0  0  0  0  0  0  0  0
    6.7158    9.0834   -3.5587 C   0  0  0  0  0  0  0  0  0  0  0  0
    9.2699    9.1082   -4.0468 C   0  0  1  0  0  0  0  0  0  0  0  0
   10.5768    8.7869   -3.2652 C   0  0  0  0  0  0  0  0  0  0  0  0
   11.6938    9.8080   -3.2260 C   0  0  0  0  0  0  0  0  0  0  0  0
   10.3601    7.7101   -2.1626 C   0  0  0  0  0  0  0  0  0  0  0  0
    9.1050    7.7556   -4.7186 C   0  0  0  0  0  0  0  0  0  0  0  0
    8.1881    7.0215   -4.3271 O   0  0  0  0  0  0  0  0  0  0  0  0
   10.3189    7.2978   -5.4475 N   0  0  0  0  0  0  0  0  0  0  0  0
   10.9558    6.1065   -4.7644 C   0  0  0  0  0  0  0  0  0  0  0  0
    7.9179    0.6628    3.0436 H   0  0  0  0  0  0  0  0  0  0  0  0
    7.2650   -0.0378    1.6044 H   0  0  0  0  0  0  0  0  0  0  0  0
    6.4886    1.3772    2.3988 H   0  0  0  0  0  0  0  0  0  0  0  0
    9.3643    1.3607    1.3611 H   0  0  0  0  0  0  0  0  0  0  0  0
    8.5426    2.7189    2.0398 H   0  0  0  0  0  0  0  0  0  0  0  0
    9.5748    3.3431   -0.0187 H   0  0  0  0  0  0  0  0  0  0  0  0
    7.1703    2.5182   -1.6933 H   0  0  0  0  0  0  0  0  0  0  0  0
    7.7451    4.6783   -2.7405 H   0  0  0  0  0  0  0  0  0  0  0  0
    8.6611    3.0446   -3.3431 H   0  0  0  0  0  0  0  0  0  0  0  0
    9.0384    3.6218   -5.2740 H   0  0  0  0  0  0  0  0  0  0  0  0
    6.2724    4.8048   -4.5418 H   0  0  0  0  0  0  0  0  0  0  0  0
    6.7578    3.1143   -4.3643 H   0  0  0  0  0  0  0  0  0  0  0  0
    6.6240    3.7773   -5.9531 H   0  0  0  0  0  0  0  0  0  0  0  0
    7.9461    6.4679   -6.2084 H   0  0  0  0  0  0  0  0  0  0  0  0
    7.2949    5.0952   -7.3048 H   0  0  0  0  0  0  0  0  0  0  0  0
   10.9931    6.4843   -7.2632 H   0  0  0  0  0  0  0  0  0  0  0  0
   12.2698   10.1279   -7.8853 H   0  0  0  0  0  0  0  0  0  0  0  0
   11.4659   11.6664   -9.6808 H   0  0  0  0  0  0  0  0  0  0  0  0
   12.0194   12.5860  -11.4819 H   0  0  0  0  0  0  0  0  0  0  0  0
   12.5308   11.0956  -12.2109 H   0  0  0  0  0  0  0  0  0  0  0  0
   14.7998   13.3992  -11.8934 H   0  0  0  0  0  0  0  0  0  0  0  0
   13.3396   13.9308  -12.5236 H   0  0  0  0  0  0  0  0  0  0  0  0
   14.1590   12.6107  -13.2901 H   0  0  0  0  0  0  0  0  0  0  0  0
   15.8391   12.3973  -11.0004 H   0  0  0  0  0  0  0  0  0  0  0  0
   15.7329   11.2752   -9.6730 H   0  0  0  0  0  0  0  0  0  0  0  0
   16.7913   12.7345   -9.6563 H   0  0  0  0  0  0  0  0  0  0  0  0
   16.3197   14.1442   -8.3758 H   0  0  0  0  0  0  0  0  0  0  0  0
   15.2525   13.2435   -7.3228 H   0  0  0  0  0  0  0  0  0  0  0  0
   14.0133   15.5832   -9.9775 H   0  0  0  0  0  0  0  0  0  0  0  0
   15.5080   16.5690  -10.0439 H   0  0  0  0  0  0  0  0  0  0  0  0
   13.9079   17.3422   -9.9837 H   0  0  0  0  0  0  0  0  0  0  0  0
   14.3207   17.5037   -6.4266 H   0  0  0  0  0  0  0  0  0  0  0  0
   12.6196   19.1714   -7.2450 H   0  0  0  0  0  0  0  0  0  0  0  0
   12.5919   18.3565   -8.7714 H   0  0  0  0  0  0  0  0  0  0  0  0
   11.9845   16.1836   -7.5189 H   0  0  0  0  0  0  0  0  0  0  0  0
   11.6191   18.1763   -5.2325 H   0  0  0  0  0  0  0  0  0  0  0  0
   12.7001   16.7471   -5.2452 H   0  0  0  0  0  0  0  0  0  0  0  0
   10.9827   16.6041   -5.1992 H   0  0  0  0  0  0  0  0  0  0  0  0
   10.0412   18.5331   -7.3080 H   0  0  0  0  0  0  0  0  0  0  0  0
    9.6147   16.8153   -7.2326 H   0  0  0  0  0  0  0  0  0  0  0  0
   10.2816   17.4876   -8.7240 H   0  0  0  0  0  0  0  0  0  0  0  0
   16.3007   20.4760   -7.1118 H   0  0  0  0  0  0  0  0  0  0  0  0
   16.8484   20.0258   -5.0140 H   0  0  0  0  0  0  0  0  0  0  0  0
   16.0074   17.1939   -5.6683 H   0  0  0  0  0  0  0  0  0  0  0  0
   17.5374   18.0111   -3.2181 H   0  0  0  0  0  0  0  0  0  0  0  0
   17.1829   16.3588   -3.7826 H   0  0  0  0  0  0  0  0  0  0  0  0
   15.8677   17.4038   -3.2786 H   0  0  0  0  0  0  0  0  0  0  0  0
   18.7942   18.3339   -5.6464 H   0  0  0  0  0  0  0  0  0  0  0  0
   17.8257   17.9694   -7.0878 H   0  0  0  0  0  0  0  0  0  0  0  0
   18.2973   16.6651   -6.0129 H   0  0  0  0  0  0  0  0  0  0  0  0
   16.5632   21.1263   -3.4368 H   0  0  0  0  0  0  0  0  0  0  0  0
   15.7640   20.7960   -1.9157 H   0  0  0  0  0  0  0  0  0  0  0  0
   15.3178   22.2448   -2.8700 H   0  0  0  0  0  0  0  0  0  0  0  0
   12.5501   19.7795   -3.5609 H   0  0  0  0  0  0  0  0  0  0  0  0
   11.5610   21.8957   -2.7000 H   0  0  0  0  0  0  0  0  0  0  0  0
   13.1264   22.6348   -2.8132 H   0  0  0  0  0  0  0  0  0  0  0  0
   13.2053   22.2076   -5.2646 H   0  0  0  0  0  0  0  0  0  0  0  0
   10.3510   21.0995   -5.0517 H   0  0  0  0  0  0  0  0  0  0  0  0
   11.7939   20.1669   -5.4588 H   0  0  0  0  0  0  0  0  0  0  0  0
   11.2595   21.4267   -6.5370 H   0  0  0  0  0  0  0  0  0  0  0  0
   10.6082   23.5473   -4.3473 H   0  0  0  0  0  0  0  0  0  0  0  0
   11.3845   23.7800   -5.9205 H   0  0  0  0  0  0  0  0  0  0  0  0
   12.2047   24.3217   -4.4455 H   0  0  0  0  0  0  0  0  0  0  0  0
   12.3998   18.6423   -0.2139 H   0  0  0  0  0  0  0  0  0  0  0  0
   11.9963   17.8746   -3.0113 H   0  0  0  0  0  0  0  0  0  0  0  0
   10.7017   16.1197   -2.2558 H   0  0  0  0  0  0  0  0  0  0  0  0
   10.4936   16.7813   -0.6259 H   0  0  0  0  0  0  0  0  0  0  0  0
   12.9529   15.4292   -1.7085 H   0  0  0  0  0  0  0  0  0  0  0  0
   11.7552   14.8317   -0.5574 H   0  0  0  0  0  0  0  0  0  0  0  0
   12.7928   16.1754   -0.0837 H   0  0  0  0  0  0  0  0  0  0  0  0
    8.4560   19.0969   -3.0433 H   0  0  0  0  0  0  0  0  0  0  0  0
    7.1377   17.6982   -2.2291 H   0  0  0  0  0  0  0  0  0  0  0  0
    9.1433   18.1912   -0.1080 H   0  0  0  0  0  0  0  0  0  0  0  0
    8.0372   16.8456    0.1929 H   0  0  0  0  0  0  0  0  0  0  0  0
    7.4357   18.4680   -0.1768 H   0  0  0  0  0  0  0  0  0  0  0  0
    5.9246   16.4929   -3.2056 H   0  0  0  0  0  0  0  0  0  0  0  0
    5.8597   14.7409   -3.0853 H   0  0  0  0  0  0  0  0  0  0  0  0
    6.0078   15.5303   -4.6909 H   0  0  0  0  0  0  0  0  0  0  0  0
    7.8258   14.3142   -5.2355 H   0  0  0  0  0  0  0  0  0  0  0  0
   10.3960   14.8356   -3.8196 H   0  0  0  0  0  0  0  0  0  0  0  0
    9.7680   15.3037   -5.3701 H   0  0  0  0  0  0  0  0  0  0  0  0
   10.3315   12.3675   -4.9174 H   0  0  0  0  0  0  0  0  0  0  0  0
   10.2910   14.1415   -7.3754 H   0  0  0  0  0  0  0  0  0  0  0  0
    9.0743   12.9378   -6.9001 H   0  0  0  0  0  0  0  0  0  0  0  0
   10.7071   12.4213   -7.3307 H   0  0  0  0  0  0  0  0  0  0  0  0
   12.3889   14.4630   -5.7425 H   0  0  0  0  0  0  0  0  0  0  0  0
   12.6216   12.7142   -5.7543 H   0  0  0  0  0  0  0  0  0  0  0  0
   12.3989   13.5616   -4.2222 H   0  0  0  0  0  0  0  0  0  0  0  0
   10.4747   13.4040   -2.5526 H   0  0  0  0  0  0  0  0  0  0  0  0
   10.2992   11.7518   -3.0365 H   0  0  0  0  0  0  0  0  0  0  0  0
   10.2599   12.1841   -1.3232 H   0  0  0  0  0  0  0  0  0  0  0  0
    8.1698   11.7630   -0.6601 H   0  0  0  0  0  0  0  0  0  0  0  0
    5.7761   11.5174   -2.4489 H   0  0  0  0  0  0  0  0  0  0  0  0
    6.0098   12.4282   -0.9808 H   0  0  0  0  0  0  0  0  0  0  0  0
    6.2450    9.3487   -1.0976 H   0  0  0  0  0  0  0  0  0  0  0  0
    6.3544   11.2171    1.2797 H   0  0  0  0  0  0  0  0  0  0  0  0
    7.6330   10.1515    0.6818 H   0  0  0  0  0  0  0  0  0  0  0  0
    6.1812    9.4395    1.3398 H   0  0  0  0  0  0  0  0  0  0  0  0
    3.9486   11.1264   -0.2753 H   0  0  0  0  0  0  0  0  0  0  0  0
    4.0599    9.3899    0.0480 H   0  0  0  0  0  0  0  0  0  0  0  0
    3.9973    9.9967   -1.6012 H   0  0  0  0  0  0  0  0  0  0  0  0
    5.9246    9.7520   -3.2335 H   0  0  0  0  0  0  0  0  0  0  0  0
    6.5240    8.1433   -3.0216 H   0  0  0  0  0  0  0  0  0  0  0  0
    6.5576    8.9372   -4.6314 H   0  0  0  0  0  0  0  0  0  0  0  0
    9.3374    9.8557   -4.8429 H   0  0  0  0  0  0  0  0  0  0  0  0
   11.1794    8.2241   -3.9545 H   0  0  0  0  0  0  0  0  0  0  0  0
   11.7393   10.3692   -2.2817 H   0  0  0  0  0  0  0  0  0  0  0  0
   11.6200   10.4816   -4.0822 H   0  0  0  0  0  0  0  0  0  0  0  0
   12.6588    9.2977   -3.3628 H   0  0  0  0  0  0  0  0  0  0  0  0
    9.9402    7.9912   -1.1936 H   0  0  0  0  0  0  0  0  0  0  0  0
   11.3008    7.2475   -1.9434 H   0  0  0  0  0  0  0  0  0  0  0  0
    9.6893    6.9098   -2.4981 H   0  0  0  0  0  0  0  0  0  0  0  0
   11.9548    6.3770   -4.4077 H   0  0  0  0  0  0  0  0  0  0  0  0
   11.0491    5.2359   -5.4188 H   0  0  0  0  0  0  0  0  0  0  0  0
   10.3844    5.7759   -3.9038 H   0  0  0  0  0  0  0  0  0  0  0  0
  1  2  1  0  0  0  0
  1 88  1  0  0  0  0
  1 89  1  0  0  0  0
  1 90  1  0  0  0  0
  2  3  1  0  0  0  0
  2 91  1  0  0  0  0
  2 92  1  0  0  0  0
  3  4  2  0  0  0  0
  3 93  1  0  0  0  0
  4  5  1  0  0  0  0
  4 94  1  0  0  0  0
  5  6  1  0  0  0  0
  5 95  1  0  0  0  0
  5 96  1  0  0  0  0
  6  7  1  0  0  0  0
  6  8  1  0  0  0  0
  6 97  1  6  0  0  0
  7 98  1  0  0  0  0
  7 99  1  0  0  0  0
  7100  1  0  0  0  0
  8  9  1  0  0  0  0
  8 10  1  0  0  0  0
  8101  1  6  0  0  0
  9102  1  0  0  0  0
 10 11  1  0  0  0  0
 10 86  1  0  0  0  0
 10103  1  6  0  0  0
 11 12  2  0  0  0  0
 11 13  1  0  0  0  0
 13 14  1  0  0  0  0
 13104  1  0  0  0  0
 14 15  1  0  0  0  0
 14 17  1  0  0  0  0
 14105  1  6  0  0  0
 15 16  1  0  0  0  0
 15106  1  0  0  0  0
 15107  1  0  0  0  0
 16108  1  0  0  0  0
 16109  1  0  0  0  0
 16110  1  0  0  0  0
 17 18  2  0  0  0  0
 17 19  1  0  0  0  0
 19 20  1  0  0  0  0
 19 21  1  0  0  0  0
 20111  1  0  0  0  0
 20112  1  0  0  0  0
 20113  1  0  0  0  0
 21 22  1  0  0  0  0
 21114  1  0  0  0  0
 21115  1  0  0  0  0
 22 23  2  0  0  0  0
 22 24  1  0  0  0  0
 24 25  1  0  0  0  0
 24 26  1  0  0  0  0
 25116  1  0  0  0  0
 25117  1  0  0  0  0
 25118  1  0  0  0  0
 26 31  1  0  0  0  0
 26 27  1  0  0  0  0
 26119  1  1  0  0  0
 27 28  1  0  0  0  0
 27120  1  0  0  0  0
 27121  1  0  0  0  0
 28 29  1  0  0  0  0
 28 30  1  0  0  0  0
 28122  1  0  0  0  0
 29123  1  0  0  0  0
 29124  1  0  0  0  0
 29125  1  0  0  0  0
 30126  1  0  0  0  0
 30127  1  0  0  0  0
 30128  1  0  0  0  0
 31 32  2  0  0  0  0
 31 33  1  0  0  0  0
 33 34  1  0  0  0  0
 33129  1  0  0  0  0
 34 38  1  0  0  0  0
 34 35  1  0  0  0  0
 34130  1  1  0  0  0
 35 36  1  0  0  0  0
 35 37  1  0  0  0  0
 35131  1  0  0  0  0
 36132  1  0  0  0  0
 36133  1  0  0  0  0
 36134  1  0  0  0  0
 37135  1  0  0  0  0
 37136  1  0  0  0  0
 37137  1  0  0  0  0
 38 39  2  0  0  0  0
 38 40  1  0  0  0  0
 40 41  1  0  0  0  0
 40 42  1  0  0  0  0
 41138  1  0  0  0  0
 41139  1  0  0  0  0
 41140  1  0  0  0  0
 42 47  1  0  0  0  0
 42 43  1  0  0  0  0
 42141  1  6  0  0  0
 43 44  1  0  0  0  0
 43142  1  0  0  0  0
 43143  1  0  0  0  0
 44 45  1  0  0  0  0
 44 46  1  0  0  0  0
 44144  1  0  0  0  0
 45145  1  0  0  0  0
 45146  1  0  0  0  0
 45147  1  0  0  0  0
 46148  1  0  0  0  0
 46149  1  0  0  0  0
 46150  1  0  0  0  0
 47 48  2  0  0  0  0
 47 49  1  0  0  0  0
 49 50  1  0  0  0  0
 49151  1  0  0  0  0
 50 51  1  0  0  0  0
 50 53  1  0  0  0  0
 50152  1  6  0  0  0
 51 52  1  0  0  0  0
 51153  1  0  0  0  0
 51154  1  0  0  0  0
 52155  1  0  0  0  0
 52156  1  0  0  0  0
 52157  1  0  0  0  0
 53 54  2  0  0  0  0
 53 55  1  0  0  0  0
 55 56  1  0  0  0  0
 55158  1  0  0  0  0
 56 58  1  0  0  0  0
 56 57  1  0  0  0  0
 56159  1  6  0  0  0
 57160  1  0  0  0  0
 57161  1  0  0  0  0
 57162  1  0  0  0  0
 58 59  2  0  0  0  0
 58 60  1  0  0  0  0
 60 61  1  0  0  0  0
 60 62  1  0  0  0  0
 61163  1  0  0  0  0
 61164  1  0  0  0  0
 61165  1  0  0  0  0
 62 63  1  0  0  0  0
 62 67  1  0  0  0  0
 62166  1  6  0  0  0
 63 64  1  0  0  0  0
 63167  1  0  0  0  0
 63168  1  0  0  0  0
 64 65  1  0  0  0  0
 64 66  1  0  0  0  0
 64169  1  0  0  0  0
 65170  1  0  0  0  0
 65171  1  0  0  0  0
 65172  1  0  0  0  0
 66173  1  0  0  0  0
 66174  1  0  0  0  0
 66175  1  0  0  0  0
 67 68  2  0  0  0  0
 67 69  1  0  0  0  0
 69 70  1  0  0  0  0
 69 71  1  0  0  0  0
 70176  1  0  0  0  0
 70177  1  0  0  0  0
 70178  1  0  0  0  0
 71 72  1  0  0  0  0
 71 76  1  0  0  0  0
 71179  1  1  0  0  0
 72 73  1  0  0  0  0
 72180  1  0  0  0  0
 72181  1  0  0  0  0
 73 74  1  0  0  0  0
 73 75  1  0  0  0  0
 73182  1  0  0  0  0
 74183  1  0  0  0  0
 74184  1  0  0  0  0
 74185  1  0  0  0  0
 75186  1  0  0  0  0
 75187  1  0  0  0  0
 75188  1  0  0  0  0
 76 77  2  0  0  0  0
 76 78  1  0  0  0  0
 78 79  1  0  0  0  0
 78 80  1  0  0  0  0
 79189  1  0  0  0  0
 79190  1  0  0  0  0
 79191  1  0  0  0  0
 80 81  1  0  0  0  0
 80 84  1  0  0  0  0
 80192  1  6  0  0  0
 81 82  1  0  0  0  0
 81 83  1  0  0  0  0
 81193  1  0  0  0  0
 82194  1  0  0  0  0
 82195  1  0  0  0  0
 82196  1  0  0  0  0
 83197  1  0  0  0  0
 83198  1  0  0  0  0
 83199  1  0  0  0  0
 84 85  2  0  0  0  0
 84 86  1  0  0  0  0
 86 87  1  0  0  0  0
 87200  1  0  0  0  0
 87201  1  0  0  0  0
 87202  1  0  0  0  0
M  END
>  <Energy>
1286.3

$$$$