88
 OpenBabel03292021533D

197197  0  0  1  0  0  0  0  0999 V2000
    7.6502   12.0591  -15.1516 C   0  0  0  0  0  0  0  0  0  0  0  0
    8.4333   11.2269  -16.1989 C   0  0  0  0  0  0  0  0  0  0  0  0
    7.7924    9.8457  -16.4831 C   0  0  2  0  0  0  0  0  0  0  0  0
    8.9352    8.5829  -16.4827 N   0  0  0  0  0  0  0  0  0  0  0  0
   10.0895    8.1501  -17.2496 C   0  0  0  0  0  0  0  0  0  0  0  0
   10.4490    8.7762  -18.2478 O   0  0  0  0  0  0  0  0  0  0  0  0
   11.0641    6.7810  -16.6320 C   0  0  2  0  0  0  0  0  0  0  0  0
   12.4975    6.1491  -17.2491 C   0  0  2  0  0  0  0  0  0  0  0  0
   13.4825    7.1988  -17.1002 O   0  0  0  0  0  0  0  0  0  0  0  0
   13.3313    4.7366  -16.6968 C   0  0  2  0  0  0  0  0  0  0  0  0
   13.3931    4.2992  -15.2254 C   0  0  0  0  0  0  0  0  0  0  0  0
   13.4878    3.4627  -17.6505 C   0  0  0  0  0  0  0  0  0  0  0  0
   12.9515    2.0666  -17.2890 C   0  0  0  0  0  0  0  0  0  0  0  0
   13.6536    0.9087  -17.3631 C   0  0  0  0  0  0  0  0  0  0  0  0
   13.1779   -0.5162  -17.1874 C   0  0  0  0  0  0  0  0  0  0  0  0
   11.8762   -0.5809  -16.6289 O   0  0  0  0  0  0  0  0  0  0  0  0
   10.2007    5.6448  -16.4047 N   0  0  0  0  0  0  0  0  0  0  0  0
    9.8194    4.8834  -17.5867 C   0  0  0  0  0  0  0  0  0  0  0  0
   10.3503    4.9477  -15.2109 C   0  0  0  0  0  0  0  0  0  0  0  0
   10.5446    3.7295  -15.2007 O   0  0  0  0  0  0  0  0  0  0  0  0
    9.8419    5.7164  -13.9532 C   0  0  2  0  0  0  0  0  0  0  0  0
   10.8047    6.5874  -13.1007 C   0  0  0  0  0  0  0  0  0  0  0  0
   11.7813    5.9248  -12.1371 C   0  0  0  0  0  0  0  0  0  0  0  0
   10.0087    7.6767  -12.3614 C   0  0  0  0  0  0  0  0  0  0  0  0
    8.8874    4.7691  -13.3432 N   0  0  0  0  0  0  0  0  0  0  0  0
    9.3544    3.7803  -12.3900 C   0  0  0  0  0  0  0  0  0  0  0  0
    7.8640    4.4259  -14.2573 C   0  0  0  0  0  0  0  0  0  0  0  0
    7.6608    5.1434  -15.2496 O   0  0  0  0  0  0  0  0  0  0  0  0
    6.9337    3.2227  -14.0054 C   0  0  2  0  0  0  0  0  0  0  0  0
    6.9953    2.1244  -15.0930 C   0  0  0  0  0  0  0  0  0  0  0  0
    8.2094    1.1686  -15.0761 C   0  0  0  0  0  0  0  0  0  0  0  0
    8.3849    0.3976  -13.7687 C   0  0  0  0  0  0  0  0  0  0  0  0
    8.0755    0.1529  -16.2215 C   0  0  0  0  0  0  0  0  0  0  0  0
    5.6016    3.8843  -13.9460 N   0  0  0  0  0  0  0  0  0  0  0  0
    5.0757    4.4778  -15.1910 C   0  0  0  0  0  0  0  0  0  0  0  0
    5.3032    4.4393  -12.6976 C   0  0  0  0  0  0  0  0  0  0  0  0
    5.9636    4.1466  -11.6916 O   0  0  0  0  0  0  0  0  0  0  0  0
    4.0683    5.3516  -12.5528 C   0  0  2  0  0  0  0  0  0  0  0  0
    4.4348    6.6433  -11.7636 C   0  0  0  0  0  0  0  0  0  0  0  0
    5.5838    7.5000  -12.3465 C   0  0  0  0  0  0  0  0  0  0  0  0
    5.2110    8.1857  -13.6559 C   0  0  0  0  0  0  0  0  0  0  0  0
    6.0019    8.5733  -11.3304 C   0  0  0  0  0  0  0  0  0  0  0  0
    3.0049    4.5345  -11.8821 N   0  0  0  0  0  0  0  0  0  0  0  0
    3.2323    4.1681  -10.4903 C   0  0  0  0  0  0  0  0  0  0  0  0
    2.2414    3.6994  -12.7011 C   0  0  0  0  0  0  0  0  0  0  0  0
    2.4740    3.6014  -13.9102 O   0  0  0  0  0  0  0  0  0  0  0  0
    0.9425    3.0147  -12.2068 C   0  0  1  0  0  0  0  0  0  0  0  0
    0.9539    2.2723  -10.8824 C   0  0  0  0  0  0  0  0  0  0  0  0
   -0.2079    3.9234  -12.2741 N   0  0  0  0  0  0  0  0  0  0  0  0
   -1.0855    3.9212  -13.3300 C   0  0  0  0  0  0  0  0  0  0  0  0
   -2.2749    3.8361  -13.0476 O   0  0  0  0  0  0  0  0  0  0  0  0
   -0.5749    4.0373  -14.7748 C   0  0  2  0  0  0  0  0  0  0  0  0
    0.3691    5.1931  -15.0512 C   0  0  0  0  0  0  0  0  0  0  0  0
   -1.6328    3.9908  -15.7984 N   0  0  0  0  0  0  0  0  0  0  0  0
   -2.4668    4.9197  -16.3323 C   0  0  0  0  0  0  0  0  0  0  0  0
   -2.7925    4.6204  -17.4947 O   0  0  0  0  0  0  0  0  0  0  0  0
   -3.1545    6.1661  -15.6108 C   0  0  1  0  0  0  0  0  0  0  0  0
   -2.4454    6.7785  -14.3975 C   0  0  0  0  0  0  0  0  0  0  0  0
   -3.3172    7.6253  -13.4390 C   0  0  0  0  0  0  0  0  0  0  0  0
   -4.2387    6.7827  -12.5589 C   0  0  0  0  0  0  0  0  0  0  0  0
   -2.3863    8.4719  -12.5617 C   0  0  0  0  0  0  0  0  0  0  0  0
   -3.5337    7.1716  -16.7005 N   0  0  0  0  0  0  0  0  0  0  0  0
   -4.5597    6.6744  -17.6242 C   0  0  0  0  0  0  0  0  0  0  0  0
   -3.0373    8.4819  -16.7604 C   0  0  0  0  0  0  0  0  0  0  0  0
   -2.7536    9.1063  -15.7316 O   0  0  0  0  0  0  0  0  0  0  0  0
   -2.6000    9.1768  -18.1109 C   0  0  1  0  0  0  0  0  0  0  0  0
   -3.6340    9.1520  -19.2722 C   0  0  0  0  0  0  0  0  0  0  0  0
   -5.0098    9.7375  -18.9264 C   0  0  0  0  0  0  0  0  0  0  0  0
   -3.1095    9.8436  -20.5374 C   0  0  0  0  0  0  0  0  0  0  0  0
   -2.1605   10.6006  -17.8424 N   0  0  0  0  0  0  0  0  0  0  0  0
   -1.0565   11.2711  -17.3738 C   0  0  0  0  0  0  0  0  0  0  0  0
   -1.1901   12.5080  -17.3732 O   0  0  0  0  0  0  0  0  0  0  0  0
    0.2393   10.6483  -16.6788 C   0  0  1  0  0  0  0  0  0  0  0  0
    0.4361    9.1606  -16.9212 C   0  0  0  0  0  0  0  0  0  0  0  0
    1.6742    8.5773  -16.2179 C   0  0  0  0  0  0  0  0  0  0  0  0
    1.4700    8.4013  -14.7161 C   0  0  0  0  0  0  0  0  0  0  0  0
    2.0899    7.3217  -16.9701 C   0  0  0  0  0  0  0  0  0  0  0  0
    1.6200   11.3683  -16.7709 N   0  0  0  0  0  0  0  0  0  0  0  0
    1.5924   12.7206  -16.2222 C   0  0  0  0  0  0  0  0  0  0  0  0
    2.3548   11.2313  -17.9542 C   0  0  0  0  0  0  0  0  0  0  0  0
    1.7152   11.2484  -19.0400 O   0  0  0  0  0  0  0  0  0  0  0  0
    3.9081   10.6458  -18.0128 C   0  0  0  0  0  0  0  0  0  0  0  0
    5.2759   10.9408  -17.3711 N   0  0  0  0  0  0  0  0  0  0  0  0
    5.6425   12.3349  -17.6148 C   0  0  0  0  0  0  0  0  0  0  0  0
    6.2575    9.8408  -17.2965 C   0  0  0  0  0  0  0  0  0  0  0  0
    5.8750    8.7172  -17.6718 O   0  0  0  0  0  0  0  0  0  0  0  0
    7.9278   11.7819  -14.1301 H   0  0  0  0  0  0  0  0  0  0  0  0
    6.5650   11.9295  -15.2160 H   0  0  0  0  0  0  0  0  0  0  0  0
    7.8570   13.1306  -15.2695 H   0  0  0  0  0  0  0  0  0  0  0  0
    8.5310   11.7937  -17.1299 H   0  0  0  0  0  0  0  0  0  0  0  0
    9.4488   11.1109  -15.8052 H   0  0  0  0  0  0  0  0  0  0  0  0
    7.3920    9.5917  -15.4901 H   0  0  0  0  0  0  0  0  0  0  0  0
    8.7246    7.9469  -15.7281 H   0  0  0  0  0  0  0  0  0  0  0  0
   11.3904    7.2096  -15.6856 H   0  0  0  0  0  0  0  0  0  0  0  0
   12.3588    6.0067  -18.3267 H   0  0  0  0  0  0  0  0  0  0  0  0
   14.2621    6.9380  -17.6254 H   0  0  0  0  0  0  0  0  0  0  0  0
   14.3621    5.1231  -16.7814 H   0  0  0  0  0  0  0  0  0  0  0  0
   12.6543    3.5480  -14.9467 H   0  0  0  0  0  0  0  0  0  0  0  0
   13.3582    5.1393  -14.5371 H   0  0  0  0  0  0  0  0  0  0  0  0
   14.3442    3.7701  -15.0385 H   0  0  0  0  0  0  0  0  0  0  0  0
   14.5757    3.3162  -17.7689 H   0  0  0  0  0  0  0  0  0  0  0  0
   13.1280    3.7181  -18.6533 H   0  0  0  0  0  0  0  0  0  0  0  0
   11.8786    2.0172  -17.0575 H   0  0  0  0  0  0  0  0  0  0  0  0
   14.7113    0.9592  -17.6326 H   0  0  0  0  0  0  0  0  0  0  0  0
   13.8557   -1.0828  -16.5401 H   0  0  0  0  0  0  0  0  0  0  0  0
   13.1571   -1.0257  -18.1554 H   0  0  0  0  0  0  0  0  0  0  0  0
   11.9452   -0.2140  -15.7317 H   0  0  0  0  0  0  0  0  0  0  0  0
   10.6922    4.3940  -18.0259 H   0  0  0  0  0  0  0  0  0  0  0  0
    9.3637    5.5549  -18.3184 H   0  0  0  0  0  0  0  0  0  0  0  0
    9.1029    4.1024  -17.3172 H   0  0  0  0  0  0  0  0  0  0  0  0
    9.1919    6.4873  -14.3859 H   0  0  0  0  0  0  0  0  0  0  0  0
   11.4542    7.1292  -13.7914 H   0  0  0  0  0  0  0  0  0  0  0  0
   11.3195    5.6876  -11.1749 H   0  0  0  0  0  0  0  0  0  0  0  0
   12.5972    6.6229  -11.9073 H   0  0  0  0  0  0  0  0  0  0  0  0
   12.2313    5.0254  -12.5612 H   0  0  0  0  0  0  0  0  0  0  0  0
    9.3573    7.2430  -11.5968 H   0  0  0  0  0  0  0  0  0  0  0  0
    9.3834    8.2498  -13.0565 H   0  0  0  0  0  0  0  0  0  0  0  0
   10.6832    8.3908  -11.8763 H   0  0  0  0  0  0  0  0  0  0  0  0
   10.1561    4.1560  -11.7689 H   0  0  0  0  0  0  0  0  0  0  0  0
    9.7085    2.8955  -12.9204 H   0  0  0  0  0  0  0  0  0  0  0  0
    8.5403    3.5079  -11.7166 H   0  0  0  0  0  0  0  0  0  0  0  0
    7.1264    2.7551  -13.0428 H   0  0  0  0  0  0  0  0  0  0  0  0
    6.0827    1.5178  -15.0128 H   0  0  0  0  0  0  0  0  0  0  0  0
    6.9747    2.5838  -16.0885 H   0  0  0  0  0  0  0  0  0  0  0  0
    9.1164    1.7506  -15.2592 H   0  0  0  0  0  0  0  0  0  0  0  0
    7.5241   -0.2475  -13.5670 H   0  0  0  0  0  0  0  0  0  0  0  0
    8.5160    1.0575  -12.9105 H   0  0  0  0  0  0  0  0  0  0  0  0
    9.2771   -0.2378  -13.8212 H   0  0  0  0  0  0  0  0  0  0  0  0
    7.2046   -0.4961  -16.0730 H   0  0  0  0  0  0  0  0  0  0  0  0
    8.9616   -0.4882  -16.2812 H   0  0  0  0  0  0  0  0  0  0  0  0
    7.9617    0.6554  -17.1874 H   0  0  0  0  0  0  0  0  0  0  0  0
    5.4282    3.9490  -16.0770 H   0  0  0  0  0  0  0  0  0  0  0  0
    5.3776    5.5260  -15.2529 H   0  0  0  0  0  0  0  0  0  0  0  0
    3.9928    4.4589  -15.2256 H   0  0  0  0  0  0  0  0  0  0  0  0
    3.6837    5.6687  -13.5228 H   0  0  0  0  0  0  0  0  0  0  0  0
    3.5320    7.2597  -11.6654 H   0  0  0  0  0  0  0  0  0  0  0  0
    4.7336    6.3897  -10.7420 H   0  0  0  0  0  0  0  0  0  0  0  0
    6.4601    6.8646  -12.5235 H   0  0  0  0  0  0  0  0  0  0  0  0
    4.4037    8.9104  -13.5120 H   0  0  0  0  0  0  0  0  0  0  0  0
    4.8978    7.4736  -14.4197 H   0  0  0  0  0  0  0  0  0  0  0  0
    6.0738    8.7293  -14.0473 H   0  0  0  0  0  0  0  0  0  0  0  0
    5.1753    9.2599  -11.1163 H   0  0  0  0  0  0  0  0  0  0  0  0
    6.8423    9.1656  -11.7096 H   0  0  0  0  0  0  0  0  0  0  0  0
    6.3182    8.1191  -10.3855 H   0  0  0  0  0  0  0  0  0  0  0  0
    4.1172    4.6381  -10.0619 H   0  0  0  0  0  0  0  0  0  0  0  0
    3.3925    3.0898  -10.4195 H   0  0  0  0  0  0  0  0  0  0  0  0
    2.3722    4.4842   -9.9001 H   0  0  0  0  0  0  0  0  0  0  0  0
    0.7595    2.2280  -12.9538 H   0  0  0  0  0  0  0  0  0  0  0  0
    0.9270    2.9515  -10.0260 H   0  0  0  0  0  0  0  0  0  0  0  0
    1.8196    1.6109  -10.7992 H   0  0  0  0  0  0  0  0  0  0  0  0
    0.0521    1.6513  -10.7975 H   0  0  0  0  0  0  0  0  0  0  0  0
   -0.7460    3.9462  -11.4227 H   0  0  0  0  0  0  0  0  0  0  0  0
   -0.0128    3.1092  -14.9474 H   0  0  0  0  0  0  0  0  0  0  0  0
   -0.1401    6.0241  -15.5373 H   0  0  0  0  0  0  0  0  0  0  0  0
    1.1494    4.8748  -15.7517 H   0  0  0  0  0  0  0  0  0  0  0  0
    0.8498    5.5783  -14.1503 H   0  0  0  0  0  0  0  0  0  0  0  0
   -1.4595    3.2909  -16.5113 H   0  0  0  0  0  0  0  0  0  0  0  0
   -4.1057    5.7551  -15.2449 H   0  0  0  0  0  0  0  0  0  0  0  0
   -1.5995    7.3690  -14.7507 H   0  0  0  0  0  0  0  0  0  0  0  0
   -1.9981    6.0160  -13.7806 H   0  0  0  0  0  0  0  0  0  0  0  0
   -3.9681    8.3010  -13.9999 H   0  0  0  0  0  0  0  0  0  0  0  0
   -3.6699    6.1209  -11.8986 H   0  0  0  0  0  0  0  0  0  0  0  0
   -4.9169    6.1719  -13.1614 H   0  0  0  0  0  0  0  0  0  0  0  0
   -4.8568    7.4354  -11.9308 H   0  0  0  0  0  0  0  0  0  0  0  0
   -1.7626    7.8383  -11.9210 H   0  0  0  0  0  0  0  0  0  0  0  0
   -2.9590    9.1501  -11.9214 H   0  0  0  0  0  0  0  0  0  0  0  0
   -1.7181    9.0842  -13.1774 H   0  0  0  0  0  0  0  0  0  0  0  0
   -5.0679    5.8002  -17.2014 H   0  0  0  0  0  0  0  0  0  0  0  0
   -4.1110    6.3859  -18.5758 H   0  0  0  0  0  0  0  0  0  0  0  0
   -5.3345    7.4220  -17.7734 H   0  0  0  0  0  0  0  0  0  0  0  0
   -1.7076    8.6406  -18.4464 H   0  0  0  0  0  0  0  0  0  0  0  0
   -3.7794    8.1097  -19.5665 H   0  0  0  0  0  0  0  0  0  0  0  0
   -5.0215   10.8285  -18.9969 H   0  0  0  0  0  0  0  0  0  0  0  0
   -5.3430    9.4767  -17.9194 H   0  0  0  0  0  0  0  0  0  0  0  0
   -5.7608    9.3541  -19.6296 H   0  0  0  0  0  0  0  0  0  0  0  0
   -3.0850   10.9321  -20.4221 H   0  0  0  0  0  0  0  0  0  0  0  0
   -3.7611    9.6188  -21.3901 H   0  0  0  0  0  0  0  0  0  0  0  0
   -2.1017    9.4986  -20.7871 H   0  0  0  0  0  0  0  0  0  0  0  0
   -2.8927   11.2808  -18.0122 H   0  0  0  0  0  0  0  0  0  0  0  0
   -0.0242   10.7423  -15.6113 H   0  0  0  0  0  0  0  0  0  0  0  0
    0.4927    8.9925  -18.0021 H   0  0  0  0  0  0  0  0  0  0  0  0
   -0.4339    8.6047  -16.5662 H   0  0  0  0  0  0  0  0  0  0  0  0
    2.5265    9.2489  -16.2848 H   0  0  0  0  0  0  0  0  0  0  0  0
    0.5528    7.8680  -14.4745 H   0  0  0  0  0  0  0  0  0  0  0  0
    1.4097    9.3770  -14.2194 H   0  0  0  0  0  0  0  0  0  0  0  0
    2.3112    7.8622  -14.2726 H   0  0  0  0  0  0  0  0  0  0  0  0
    1.2438    6.6547  -17.1423 H   0  0  0  0  0  0  0  0  0  0  0  0
    2.8880    6.7870  -16.4514 H   0  0  0  0  0  0  0  0  0  0  0  0
    2.4619    7.5990  -17.9642 H   0  0  0  0  0  0  0  0  0  0  0  0
    0.9900   12.7482  -15.3073 H   0  0  0  0  0  0  0  0  0  0  0  0
    1.1807   13.4197  -16.9567 H   0  0  0  0  0  0  0  0  0  0  0  0
    2.6129   13.0188  -15.9881 H   0  0  0  0  0  0  0  0  0  0  0  0
    4.1344   10.8129  -19.0783 H   0  0  0  0  0  0  0  0  0  0  0  0
    3.7604    9.5682  -17.9397 H   0  0  0  0  0  0  0  0  0  0  0  0
    5.5545   12.5441  -18.6897 H   0  0  0  0  0  0  0  0  0  0  0  0
    6.6560   12.5907  -17.3468 H   0  0  0  0  0  0  0  0  0  0  0  0
    4.9428   12.9887  -17.0846 H   0  0  0  0  0  0  0  0  0  0  0  0
  1  2  1  0  0  0  0
  1 87  1  0  0  0  0
  1 88  1  0  0  0  0
  1 89  1  0  0  0  0
  2  3  1  0  0  0  0
  2 90  1  0  0  0  0
  2 91  1  0  0  0  0
  3  4  1  0  0  0  0
  3 85  1  0  0  0  0
  3 92  1  1  0  0  0
  4  5  1  0  0  0  0
  4 93  1  0  0  0  0
  5  6  2  0  0  0  0
  5  7  1  0  0  0  0
  7 17  1  0  0  0  0
  7  8  1  0  0  0  0
  7 94  1  1  0  0  0
  8 10  1  0  0  0  0
  8  9  1  0  0  0  0
  8 95  1  1  0  0  0
  9 96  1  0  0  0  0
 10 12  1  0  0  0  0
 10 11  1  0  0  0  0
 10 97  1  1  0  0  0
 11 98  1  0  0  0  0
 11 99  1  0  0  0  0
 11100  1  0  0  0  0
 12 13  1  0  0  0  0
 12101  1  0  0  0  0
 12102  1  0  0  0  0
 13 14  2  0  0  0  0
 13103  1  0  0  0  0
 14 15  1  0  0  0  0
 14104  1  0  0  0  0
 15 16  1  0  0  0  0
 15105  1  0  0  0  0
 15106  1  0  0  0  0
 16107  1  0  0  0  0
 17 18  1  0  0  0  0
 17 19  1  0  0  0  0
 18108  1  0  0  0  0
 18109  1  0  0  0  0
 18110  1  0  0  0  0
 19 20  2  0  0  0  0
 19 21  1  0  0  0  0
 21 25  1  0  0  0  0
 21 22  1  0  0  0  0
 21111  1  6  0  0  0
 22 23  1  0  0  0  0
 22 24  1  0  0  0  0
 22112  1  0  0  0  0
 23113  1  0  0  0  0
 23114  1  0  0  0  0
 23115  1  0  0  0  0
 24116  1  0  0  0  0
 24117  1  0  0  0  0
 24118  1  0  0  0  0
 25 26  1  0  0  0  0
 25 27  1  0  0  0  0
 26119  1  0  0  0  0
 26120  1  0  0  0  0
 26121  1  0  0  0  0
 27 28  2  0  0  0  0
 27 29  1  0  0  0  0
 29 34  1  0  0  0  0
 29 30  1  0  0  0  0
 29122  1  1  0  0  0
 30 31  1  0  0  0  0
 30123  1  0  0  0  0
 30124  1  0  0  0  0
 31 32  1  0  0  0  0
 31 33  1  0  0  0  0
 31125  1  0  0  0  0
 32126  1  0  0  0  0
 32127  1  0  0  0  0
 32128  1  0  0  0  0
 33129  1  0  0  0  0
 33130  1  0  0  0  0
 33131  1  0  0  0  0
 34 35  1  0  0  0  0
 34 36  1  0  0  0  0
 35132  1  0  0  0  0
 35133  1  0  0  0  0
 35134  1  0  0  0  0
 36 37  2  0  0  0  0
 36 38  1  0  0  0  0
 38 43  1  0  0  0  0
 38 39  1  0  0  0  0
 38135  1  6  0  0  0
 39 40  1  0  0  0  0
 39136  1  0  0  0  0
 39137  1  0  0  0  0
 40 41  1  0  0  0  0
 40 42  1  0  0  0  0
 40138  1  0  0  0  0
 41139  1  0  0  0  0
 41140  1  0  0  0  0
 41141  1  0  0  0  0
 42142  1  0  0  0  0
 42143  1  0  0  0  0
 42144  1  0  0  0  0
 43 44  1  0  0  0  0
 43 45  1  0  0  0  0
 44145  1  0  0  0  0
 44146  1  0  0  0  0
 44147  1  0  0  0  0
 45 46  2  0  0  0  0
 45 47  1  0  0  0  0
 47 48  1  0  0  0  0
 47 49  1  0  0  0  0
 47148  1  6  0  0  0
 48149  1  0  0  0  0
 48150  1  0  0  0  0
 48151  1  0  0  0  0
 49 50  1  0  0  0  0
 49152  1  0  0  0  0
 50 51  2  0  0  0  0
 50 52  1  0  0  0  0
 52 54  1  0  0  0  0
 52 53  1  0  0  0  0
 52153  1  6  0  0  0
 53154  1  0  0  0  0
 53155  1  0  0  0  0
 53156  1  0  0  0  0
 54 55  1  0  0  0  0
 54157  1  0  0  0  0
 55 56  2  0  0  0  0
 55 57  1  0  0  0  0
 57 58  1  0  0  0  0
 57 62  1  0  0  0  0
 57158  1  1  0  0  0
 58 59  1  0  0  0  0
 58159  1  0  0  0  0
 58160  1  0  0  0  0
 59 60  1  0  0  0  0
 59 61  1  0  0  0  0
 59161  1  0  0  0  0
 60162  1  0  0  0  0
 60163  1  0  0  0  0
 60164  1  0  0  0  0
 61165  1  0  0  0  0
 61166  1  0  0  0  0
 61167  1  0  0  0  0
 62 63  1  0  0  0  0
 62 64  1  0  0  0  0
 63168  1  0  0  0  0
 63169  1  0  0  0  0
 63170  1  0  0  0  0
 64 65  2  0  0  0  0
 64 66  1  0  0  0  0
 66 67  1  0  0  0  0
 66 70  1  0  0  0  0
 66171  1  6  0  0  0
 67 68  1  0  0  0  0
 67 69  1  0  0  0  0
 67172  1  0  0  0  0
 68173  1  0  0  0  0
 68174  1  0  0  0  0
 68175  1  0  0  0  0
 69176  1  0  0  0  0
 69177  1  0  0  0  0
 69178  1  0  0  0  0
 70 71  1  0  0  0  0
 70179  1  0  0  0  0
 71 72  2  0  0  0  0
 71 73  1  0  0  0  0
 73 74  1  0  0  0  0
 73 78  1  0  0  0  0
 73180  1  1  0  0  0
 74 75  1  0  0  0  0
 74181  1  0  0  0  0
 74182  1  0  0  0  0
 75 76  1  0  0  0  0
 75 77  1  0  0  0  0
 75183  1  0  0  0  0
 76184  1  0  0  0  0
 76185  1  0  0  0  0
 76186  1  0  0  0  0
 77187  1  0  0  0  0
 77188  1  0  0  0  0
 77189  1  0  0  0  0
 78 79  1  0  0  0  0
 78 80  1  0  0  0  0
 79190  1  0  0  0  0
 79191  1  0  0  0  0
 79192  1  0  0  0  0
 80 81  2  0  0  0  0
 80 82  1  0  0  0  0
 82 83  1  0  0  0  0
 82193  1  0  0  0  0
 82194  1  0  0  0  0
 83 84  1  0  0  0  0
 83 85  1  0  0  0  0
 84195  1  0  0  0  0
 84196  1  0  0  0  0
 84197  1  0  0  0  0
 85 86  2  0  0  0  0
M  END
>  <Energy>
562.671

$$$$