10376018
  -OEChem-03242010093D

 39 38  0     1  0  0  0  0  0999 V2000
   -2.4329    1.7351    1.0587 O   0  0  0  0  0  0  0  0  0  0  0  0
   -3.5977   -1.3216    0.5460 O   0  0  0  0  0  0  0  0  0  0  0  0
   -4.4039   -0.0238   -1.1822 O   0  0  0  0  0  0  0  0  0  0  0  0
   -0.1143    1.1945    0.6571 C   0  0  0  0  0  0  0  0  0  0  0  0
    0.9106    0.0845    0.3934 C   0  0  0  0  0  0  0  0  0  0  0  0
   -1.5525    0.6574    0.7236 C   0  0  2  0  0  0  0  0  0  0  0  0
    2.3356    0.6415    0.3626 C   0  0  0  0  0  0  0  0  0  0  0  0
   -2.0387    0.0329   -0.6013 C   0  0  2  0  0  0  0  0  0  0  0  0
    3.3578   -0.4597    0.0713 C   0  0  0  0  0  0  0  0  0  0  0  0
    4.7781    0.1063    0.0080 C   0  0  0  0  0  0  0  0  0  0  0  0
   -1.9486    0.9777   -1.7962 C   0  0  0  0  0  0  0  0  0  0  0  0
    5.8451   -0.9598   -0.2501 C   0  0  0  0  0  0  0  0  0  0  0  0
   -3.4891   -0.4122   -0.4672 C   0  0  0  0  0  0  0  0  0  0  0  0
    7.2610   -0.4059   -0.2881 C   0  0  0  0  0  0  0  0  0  0  0  0
   -4.9107   -1.8471    0.7642 C   0  0  0  0  0  0  0  0  0  0  0  0
   -0.0294    1.9914   -0.0909 H   0  0  0  0  0  0  0  0  0  0  0  0
    0.1165    1.6811    1.6143 H   0  0  0  0  0  0  0  0  0  0  0  0
    0.8305   -0.6840    1.1716 H   0  0  0  0  0  0  0  0  0  0  0  0
    0.7056   -0.4002   -0.5670 H   0  0  0  0  0  0  0  0  0  0  0  0
   -1.6154   -0.0725    1.5398 H   0  0  0  0  0  0  0  0  0  0  0  0
    2.5670    1.1141    1.3248 H   0  0  0  0  0  0  0  0  0  0  0  0
    2.4072    1.4204   -0.4063 H   0  0  0  0  0  0  0  0  0  0  0  0
   -1.4598   -0.8679   -0.8369 H   0  0  0  0  0  0  0  0  0  0  0  0
    3.1172   -0.9471   -0.8812 H   0  0  0  0  0  0  0  0  0  0  0  0
    3.3029   -1.2283    0.8516 H   0  0  0  0  0  0  0  0  0  0  0  0
    4.8314    0.8656   -0.7822 H   0  0  0  0  0  0  0  0  0  0  0  0
    5.0056    0.6164    0.9524 H   0  0  0  0  0  0  0  0  0  0  0  0
   -2.4933    1.9118   -1.6204 H   0  0  0  0  0  0  0  0  0  0  0  0
   -2.3700    0.5159   -2.6967 H   0  0  0  0  0  0  0  0  0  0  0  0
   -0.9091    1.2280   -2.0290 H   0  0  0  0  0  0  0  0  0  0  0  0
    5.6345   -1.4603   -1.2027 H   0  0  0  0  0  0  0  0  0  0  0  0
    5.7878   -1.7271    0.5311 H   0  0  0  0  0  0  0  0  0  0  0  0
   -3.2885    1.3528    1.3169 H   0  0  0  0  0  0  0  0  0  0  0  0
    7.3669    0.3393   -1.0827 H   0  0  0  0  0  0  0  0  0  0  0  0
    7.9793   -1.2099   -0.4758 H   0  0  0  0  0  0  0  0  0  0  0  0
    7.5201    0.0680    0.6640 H   0  0  0  0  0  0  0  0  0  0  0  0
   -5.2609   -2.3742   -0.1284 H   0  0  0  0  0  0  0  0  0  0  0  0
   -4.8590   -2.5575    1.5936 H   0  0  0  0  0  0  0  0  0  0  0  0
   -5.6004   -1.0419    1.0341 H   0  0  0  0  0  0  0  0  0  0  0  0
  1  6  1  0  0  0  0
  1 33  1  0  0  0  0
  2 13  1  0  0  0  0
  2 15  1  0  0  0  0
  3 13  2  0  0  0  0
  4  5  1  0  0  0  0
  4  6  1  0  0  0  0
  4 16  1  0  0  0  0
  4 17  1  0  0  0  0
  5  7  1  0  0  0  0
  5 18  1  0  0  0  0
  5 19  1  0  0  0  0
  6  8  1  0  0  0  0
  6 20  1  0  0  0  0
  7  9  1  0  0  0  0
  7 21  1  0  0  0  0
  7 22  1  0  0  0  0
  8 11  1  0  0  0  0
  8 13  1  0  0  0  0
  8 23  1  0  0  0  0
  9 10  1  0  0  0  0
  9 24  1  0  0  0  0
  9 25  1  0  0  0  0
 10 12  1  0  0  0  0
 10 26  1  0  0  0  0
 10 27  1  0  0  0  0
 11 28  1  0  0  0  0
 11 29  1  0  0  0  0
 11 30  1  0  0  0  0
 12 14  1  0  0  0  0
 12 31  1  0  0  0  0
 12 32  1  0  0  0  0
 14 34  1  0  0  0  0
 14 35  1  0  0  0  0
 14 36  1  0  0  0  0
 15 37  1  0  0  0  0
 15 38  1  0  0  0  0
 15 39  1  0  0  0  0
M  END
> <PUBCHEM_COMPOUND_CID>
10376018

> <PUBCHEM_CONFORMER_RMSD>
0.8

> <PUBCHEM_CONFORMER_DIVERSEORDER>
3
162
80
186
256
4
109
26
296
261
23
251
15
242
213
139
201
244
98
226
31
266
127
27
114
85
55
79
106
300
237
54
130
224
195
36
259
136
22
292
214
46
220
56
282
1
271
254
45
293
17
192
164
231
161
53
38
240
6
29
223
97
14
255
118
218
243
268
138
129
166
8
286
20
100
173
191
236
172
92
37
249
25
275
101
247
69
11
229
39
64
126
143
258
5
287
81
238
257
108
197
90
267
104
294
148
94
95
78
142
252
2
222
89
175
19
281
119
51
7
145
212
182
297
250
285
88
34
216
77
202
105
189
116
183
269
206
24
73
277
48
96
167
235
196
158
169
152
280
43
32
135
211
248
301
107
225
234
40
33
16
134
153
205
184
30
84
278
125
215
232
70
228
110
123
274
21
49
67
270
61
112
245
93
284
13
10
65
221
253
44
86
198
241
68
75
137
156
60
295
155
83
181
128
147
273
276
115
131
62
35
298
151
199
233
132
120
209
74
41
111
87
150
262
288
63
263
154
9
265
102
57
133
219
227
58
204
203
66
91
194
18
99
239
121
272
103
185
72
47
160
124
260
174
246
178
117
170
42
52
283
76
122
50
159
168
59
144
176
146
179
188
208
140
190
141
149
12
71
264
207
82
290
187
157
289
279
200
299
28
113
180
230
163
177
291
217
210
171
165
193

> <PUBCHEM_MMFF94_PARTIAL_CHARGES>
8
1 -0.68
13 0.66
15 0.28
2 -0.43
3 -0.57
33 0.4
6 0.28
8 0.06

> <PUBCHEM_EFFECTIVE_ROTOR_COUNT>
9

> <PUBCHEM_PHARMACOPHORE_FEATURES>
7
1 1 acceptor
1 1 donor
1 11 hydrophobe
1 14 hydrophobe
1 3 acceptor
3 4 5 7 hydrophobe
3 9 10 12 hydrophobe

> <PUBCHEM_HEAVY_ATOM_COUNT>
15

> <PUBCHEM_ATOM_DEF_STEREO_COUNT>
2

> <PUBCHEM_ATOM_UDEF_STEREO_COUNT>
0

> <PUBCHEM_BOND_DEF_STEREO_COUNT>
0

> <PUBCHEM_BOND_UDEF_STEREO_COUNT>
0

> <PUBCHEM_ISOTOPIC_ATOM_COUNT>
0

> <PUBCHEM_COMPONENT_COUNT>
1

> <PUBCHEM_CACTVS_TAUTO_COUNT>
1

> <PUBCHEM_CONFORMER_ID>
009E535200000003

> <PUBCHEM_MMFF94_ENERGY>
13.5284

> <PUBCHEM_FEATURE_SELFOVERLAP>
35.534

> <PUBCHEM_SHAPE_FINGERPRINT>
10680689 15 16917062235908652728
11089746 13 14345794972667000702
11315181 36 18408044013813528104
12616971 3 16845568743144523640
12916754 54 18260551155586355116
13288520 33 18408324397636313491
13551218 46 16630532791281107534
13668630 136 18335704915151220094
1420 363 18202004335346205714
14251718 22 18113337522954047762
14251740 79 18259989296565320042
14350574 20 18408887364880328424
14455015 7 18273498979098409458
15501527 16 7781511517158586882
15716309 27 17275105020855944242
17780758 139 14692568827563664790
193927 3 18202291307490515804
19489759 90 16443062786249114620
200 152 18411417310897074576
20300324 65 16877938326051784508
20621476 21 18261965153251807739
20645477 56 8070028860964586154
20767249 213 7925912577735464034
20871999 31 17967808332053083365
21150785 3 17895202130044056742
23402539 116 18342739564580546976
23402655 69 16081634596198826829
23557571 272 18261388901842309796
23559900 14 18336820996124403968
2767999 5 12468636149438696014
351380 3 17346594167355977542
441001 317 14707210998494271740
5104073 3 17989204811940793026
57265010 4 13614517484791566909

> <PUBCHEM_SHAPE_MULTIPOLES>
291.09
14.78
1.41
1.15
23.63
0.23
0.28
6.98
2.03
-1.75
-0.28
-1.14
-0.36
0.67

> <PUBCHEM_SHAPE_SELFOVERLAP>
539.048

> <PUBCHEM_SHAPE_VOLUME>
183.8

> <PUBCHEM_COORDINATE_TYPE>
2
5
10

$$$$