89
 OpenBabel03292021533D

193193  0  0  1  0  0  0  0  0999 V2000
    6.7332    4.7017   -5.2934 C   0  0  0  0  0  0  0  0  0  0  0  0
    8.0503    4.1206   -5.7331 C   0  0  0  0  0  0  0  0  0  0  0  0
    9.0402    3.7147   -4.9052 C   0  0  0  0  0  0  0  0  0  0  0  0
   10.4328    3.2408   -5.3468 C   0  0  0  0  0  0  0  0  0  0  0  0
   10.9412    1.8841   -4.7520 C   0  0  1  0  0  0  0  0  0  0  0  0
    9.8445    0.8247   -5.0985 C   0  0  0  0  0  0  0  0  0  0  0  0
   12.4888    1.3122   -5.0986 C   0  0  1  0  0  0  0  0  0  0  0  0
   12.4649    0.0065   -4.5515 O   0  0  0  0  0  0  0  0  0  0  0  0
   13.9446    2.0236   -4.6174 C   0  0  1  0  0  0  0  0  0  0  0  0
   15.5123    1.2274   -4.3698 C   0  0  0  0  0  0  0  0  0  0  0  0
   15.7480    0.1890   -5.0008 O   0  0  0  0  0  0  0  0  0  0  0  0
   16.5994    1.8674   -3.6638 N   0  0  0  0  0  0  0  0  0  0  0  0
   18.1614    1.4518   -3.4885 C   0  0  1  0  0  0  0  0  0  0  0  0
   18.4260    0.5879   -2.2329 C   0  0  0  0  0  0  0  0  0  0  0  0
   19.7434   -0.2233   -2.3103 C   0  0  0  0  0  0  0  0  0  0  0  0
   19.2964    2.6990   -3.5574 C   0  0  0  0  0  0  0  0  0  0  0  0
   18.9157    3.8122   -3.9468 O   0  0  0  0  0  0  0  0  0  0  0  0
   20.7324    2.4923   -3.3592 N   0  0  0  0  0  0  0  0  0  0  0  0
   21.2675    2.0560   -2.0606 C   0  0  0  0  0  0  0  0  0  0  0  0
   21.6867    3.4677   -3.9307 C   0  0  0  0  0  0  0  0  0  0  0  0
   22.1088    3.6749   -5.3934 C   0  0  0  0  0  0  0  0  0  0  0  0
   22.3600    4.8130   -5.7987 O   0  0  0  0  0  0  0  0  0  0  0  0
   22.4138    2.6610   -6.2470 N   0  0  0  0  0  0  0  0  0  0  0  0
   22.3949    1.1945   -6.1052 C   0  0  1  0  0  0  0  0  0  0  0  0
   21.2598    0.6572   -7.0269 C   0  0  1  0  0  0  0  0  0  0  0  0
   21.1748   -0.8618   -7.0310 C   0  0  0  0  0  0  0  0  0  0  0  0
   19.8657    1.1597   -6.5935 C   0  0  0  0  0  0  0  0  0  0  0  0
   19.4584    2.5542   -7.0415 C   0  0  0  0  0  0  0  0  0  0  0  0
   23.9210    0.7869   -6.1175 C   0  0  0  0  0  0  0  0  0  0  0  0
   24.6365    1.3025   -5.2353 O   0  0  0  0  0  0  0  0  0  0  0  0
   24.6262    0.0088   -6.9709 N   0  0  0  0  0  0  0  0  0  0  0  0
   24.3614   -0.9893   -8.0470 C   0  0  2  0  0  0  0  0  0  0  0  0
   23.6687   -0.2587   -9.2328 C   0  0  0  0  0  0  0  0  0  0  0  0
   22.9479   -1.0803  -10.2959 C   0  0  0  0  0  0  0  0  0  0  0  0
   24.6180    0.7320   -9.9336 C   0  0  0  0  0  0  0  0  0  0  0  0
   23.8446   -2.3061   -7.2890 C   0  0  0  0  0  0  0  0  0  0  0  0
   23.7189   -2.2668   -6.0568 O   0  0  0  0  0  0  0  0  0  0  0  0
   23.5570   -3.5008   -7.9492 N   0  0  0  0  0  0  0  0  0  0  0  0
   24.0834   -3.7957   -9.2784 C   0  0  0  0  0  0  0  0  0  0  0  0
   22.9928   -4.6727   -7.1273 C   0  0  2  0  0  0  0  0  0  0  0  0
   24.1843   -5.6075   -6.7466 C   0  0  0  0  0  0  0  0  0  0  0  0
   23.9440   -6.7850   -5.7783 C   0  0  0  0  0  0  0  0  0  0  0  0
   23.0728   -7.9064   -6.3520 C   0  0  0  0  0  0  0  0  0  0  0  0
   25.2930   -7.4032   -5.3839 C   0  0  0  0  0  0  0  0  0  0  0  0
   21.9067   -5.4778   -7.8782 C   0  0  0  0  0  0  0  0  0  0  0  0
   22.1310   -5.9289   -9.0179 O   0  0  0  0  0  0  0  0  0  0  0  0
   20.7026   -5.8201   -7.3712 N   0  0  0  0  0  0  0  0  0  0  0  0
   19.8667   -5.3297   -6.2242 C   0  0  1  0  0  0  0  0  0  0  0  0
   18.4427   -5.2333   -6.7289 C   0  0  0  0  0  0  0  0  0  0  0  0
   20.1033   -6.0707   -4.8801 C   0  0  0  0  0  0  0  0  0  0  0  0
   21.2613   -6.0932   -4.4355 O   0  0  0  0  0  0  0  0  0  0  0  0
   19.2149   -6.6382   -4.0196 N   0  0  0  0  0  0  0  0  0  0  0  0
   17.7917   -7.0599   -3.9346 C   0  0  2  0  0  0  0  0  0  0  0  0
   17.4505   -8.0903   -4.9945 C   0  0  0  0  0  0  0  0  0  0  0  0
   16.6784   -5.9636   -3.7393 C   0  0  0  0  0  0  0  0  0  0  0  0
   15.8050   -5.8004   -4.6066 O   0  0  0  0  0  0  0  0  0  0  0  0
   16.7360   -5.1551   -2.6105 N   0  0  0  0  0  0  0  0  0  0  0  0
   16.8783   -5.6966   -1.2727 C   0  0  0  0  0  0  0  0  0  0  0  0
   16.2967   -3.7348   -2.6950 C   0  0  1  0  0  0  0  0  0  0  0  0
   16.7636   -3.0253   -3.9624 C   0  0  0  0  0  0  0  0  0  0  0  0
   18.1873   -2.5316   -3.8663 C   0  0  0  0  0  0  0  0  0  0  0  0
   19.2052   -3.4314   -3.1649 C   0  0  0  0  0  0  0  0  0  0  0  0
   18.6750   -2.0140   -5.1960 C   0  0  0  0  0  0  0  0  0  0  0  0
   14.9216   -3.2872   -2.1453 C   0  0  0  0  0  0  0  0  0  0  0  0
   14.7340   -3.3800   -0.9201 O   0  0  0  0  0  0  0  0  0  0  0  0
   13.9718   -2.7155   -2.9674 N   0  0  0  0  0  0  0  0  0  0  0  0
   13.8314   -2.9594   -4.4040 C   0  0  0  0  0  0  0  0  0  0  0  0
   12.9168   -1.8913   -2.3237 C   0  0  1  0  0  0  0  0  0  0  0  0
   12.0337   -2.8227   -1.4531 C   0  0  0  0  0  0  0  0  0  0  0  0
   10.5721   -3.0360   -1.9410 C   0  0  0  0  0  0  0  0  0  0  0  0
   10.4568   -3.6198   -3.3582 C   0  0  0  0  0  0  0  0  0  0  0  0
    9.8584   -4.0021   -0.9854 C   0  0  0  0  0  0  0  0  0  0  0  0
   13.5740   -0.3981   -1.8842 C   0  0  0  0  0  0  0  0  0  0  0  0
   14.7715   -0.1538   -2.0623 O   0  0  0  0  0  0  0  0  0  0  0  0
   12.7307    0.6625   -1.4824 N   0  0  0  0  0  0  0  0  0  0  0  0
   11.7126    0.3074   -0.5045 C   0  0  0  0  0  0  0  0  0  0  0  0
   13.0478    2.1896   -1.5547 C   0  0  1  0  0  0  0  0  0  0  0  0
   14.2542    2.8111   -0.7315 C   0  0  0  0  0  0  0  0  0  0  0  0
   14.9848    4.0131   -1.3915 C   0  0  0  0  0  0  0  0  0  0  0  0
   13.7162    3.4374    0.5725 C   0  0  0  0  0  0  0  0  0  0  0  0
   12.7622    3.1507   -2.7575 C   0  0  0  0  0  0  0  0  0  0  0  0
   11.8644    3.9930   -2.6121 O   0  0  0  0  0  0  0  0  0  0  0  0
   13.6037    3.2202   -3.8563 N   0  0  0  0  0  0  0  0  0  0  0  0
   13.5607    4.4320   -4.6873 C   0  0  0  0  0  0  0  0  0  0  0  0
    5.9005    4.1655   -5.7641 H   0  0  0  0  0  0  0  0  0  0  0  0
    6.6635    5.7510   -5.6072 H   0  0  0  0  0  0  0  0  0  0  0  0
    6.5863    4.6660   -4.2095 H   0  0  0  0  0  0  0  0  0  0  0  0
    8.1943    4.0751   -6.8024 H   0  0  0  0  0  0  0  0  0  0  0  0
    8.8839    3.8033   -3.8277 H   0  0  0  0  0  0  0  0  0  0  0  0
   11.0811    4.0509   -5.0322 H   0  0  0  0  0  0  0  0  0  0  0  0
   10.4709    3.1922   -6.4410 H   0  0  0  0  0  0  0  0  0  0  0  0
   10.8639    1.9467   -3.6593 H   0  0  0  0  0  0  0  0  0  0  0  0
    9.7023    0.7387   -6.1770 H   0  0  0  0  0  0  0  0  0  0  0  0
    8.8754    1.1102   -4.6599 H   0  0  0  0  0  0  0  0  0  0  0  0
   10.0585   -0.1639   -4.6886 H   0  0  0  0  0  0  0  0  0  0  0  0
   12.5316    1.1950   -6.1872 H   0  0  0  0  0  0  0  0  0  0  0  0
   11.9620    0.1054   -3.7244 H   0  0  0  0  0  0  0  0  0  0  0  0
   14.2430    2.4339   -5.5974 H   0  0  0  0  0  0  0  0  0  0  0  0
   16.3663    2.6409   -3.0802 H   0  0  0  0  0  0  0  0  0  0  0  0
   18.3142    0.8203   -4.3633 H   0  0  0  0  0  0  0  0  0  0  0  0
   17.5920   -0.0860   -2.0292 H   0  0  0  0  0  0  0  0  0  0  0  0
   18.4806    1.2488   -1.3612 H   0  0  0  0  0  0  0  0  0  0  0  0
   19.6310   -1.2761   -2.4504 H   0  0  0  0  0  0  0  0  0  0  0  0
   20.2896   -0.2094   -1.3620 H   0  0  0  0  0  0  0  0  0  0  0  0
   20.3818    0.0614   -3.1506 H   0  0  0  0  0  0  0  0  0  0  0  0
   21.9522    1.2283   -2.2221 H   0  0  0  0  0  0  0  0  0  0  0  0
   20.5045    1.8448   -1.3133 H   0  0  0  0  0  0  0  0  0  0  0  0
   21.8680    2.8615   -1.5993 H   0  0  0  0  0  0  0  0  0  0  0  0
   22.6698    3.2288   -3.4909 H   0  0  0  0  0  0  0  0  0  0  0  0
   21.4131    4.4511   -3.5233 H   0  0  0  0  0  0  0  0  0  0  0  0
   22.8000    3.0218   -7.1105 H   0  0  0  0  0  0  0  0  0  0  0  0
   22.0951    0.9630   -5.0733 H   0  0  0  0  0  0  0  0  0  0  0  0
   21.3758    1.0281   -8.0468 H   0  0  0  0  0  0  0  0  0  0  0  0
   21.4721   -1.2770   -6.0683 H   0  0  0  0  0  0  0  0  0  0  0  0
   21.7888   -1.2852   -7.8071 H   0  0  0  0  0  0  0  0  0  0  0  0
   20.1770   -1.2300   -7.2844 H   0  0  0  0  0  0  0  0  0  0  0  0
   19.8303    1.0789   -5.5139 H   0  0  0  0  0  0  0  0  0  0  0  0
   19.0889    0.4961   -6.9861 H   0  0  0  0  0  0  0  0  0  0  0  0
   19.9420    3.3441   -6.4716 H   0  0  0  0  0  0  0  0  0  0  0  0
   18.3837    2.6868   -6.8814 H   0  0  0  0  0  0  0  0  0  0  0  0
   19.6709    2.7110   -8.1009 H   0  0  0  0  0  0  0  0  0  0  0  0
   25.5867   -0.0592   -6.6030 H   0  0  0  0  0  0  0  0  0  0  0  0
   25.3632   -1.2740   -8.3976 H   0  0  0  0  0  0  0  0  0  0  0  0
   22.9209    0.3917   -8.8133 H   0  0  0  0  0  0  0  0  0  0  0  0
   23.6451   -1.5728  -10.9770 H   0  0  0  0  0  0  0  0  0  0  0  0
   22.3204   -0.4192  -10.9089 H   0  0  0  0  0  0  0  0  0  0  0  0
   22.2741   -1.8206   -9.8622 H   0  0  0  0  0  0  0  0  0  0  0  0
   25.3555    0.2173  -10.5544 H   0  0  0  0  0  0  0  0  0  0  0  0
   25.1486    1.3638   -9.2139 H   0  0  0  0  0  0  0  0  0  0  0  0
   24.0422    1.4070  -10.5812 H   0  0  0  0  0  0  0  0  0  0  0  0
   24.7285   -2.9963   -9.6437 H   0  0  0  0  0  0  0  0  0  0  0  0
   23.2539   -3.9389   -9.9737 H   0  0  0  0  0  0  0  0  0  0  0  0
   24.6983   -4.6968   -9.2580 H   0  0  0  0  0  0  0  0  0  0  0  0
   22.5495   -4.2675   -6.2120 H   0  0  0  0  0  0  0  0  0  0  0  0
   24.6204   -6.0307   -7.6595 H   0  0  0  0  0  0  0  0  0  0  0  0
   24.9679   -4.9714   -6.3121 H   0  0  0  0  0  0  0  0  0  0  0  0
   23.5011   -6.3997   -4.8578 H   0  0  0  0  0  0  0  0  0  0  0  0
   23.3745   -8.1671   -7.3717 H   0  0  0  0  0  0  0  0  0  0  0  0
   22.0188   -7.6435   -6.3688 H   0  0  0  0  0  0  0  0  0  0  0  0
   23.1374   -8.8124   -5.7401 H   0  0  0  0  0  0  0  0  0  0  0  0
   25.8089   -7.8153   -6.2576 H   0  0  0  0  0  0  0  0  0  0  0  0
   25.1474   -8.2158   -4.6626 H   0  0  0  0  0  0  0  0  0  0  0  0
   25.9435   -6.6594   -4.9165 H   0  0  0  0  0  0  0  0  0  0  0  0
   20.2135   -6.4284   -7.9983 H   0  0  0  0  0  0  0  0  0  0  0  0
   20.2129   -4.3087   -6.0350 H   0  0  0  0  0  0  0  0  0  0  0  0
   18.0978   -6.1761   -7.1866 H   0  0  0  0  0  0  0  0  0  0  0  0
   18.3555   -4.4787   -7.5151 H   0  0  0  0  0  0  0  0  0  0  0  0
   17.7556   -4.9719   -5.9391 H   0  0  0  0  0  0  0  0  0  0  0  0
   19.7515   -6.9393   -3.2111 H   0  0  0  0  0  0  0  0  0  0  0  0
   17.7615   -7.6273   -2.9977 H   0  0  0  0  0  0  0  0  0  0  0  0
   17.7635   -7.7863   -5.9920 H   0  0  0  0  0  0  0  0  0  0  0  0
   16.3748   -8.2993   -5.0223 H   0  0  0  0  0  0  0  0  0  0  0  0
   17.9682   -9.0312   -4.7785 H   0  0  0  0  0  0  0  0  0  0  0  0
   17.3149   -6.6935   -1.2624 H   0  0  0  0  0  0  0  0  0  0  0  0
   15.8841   -5.7646   -0.8114 H   0  0  0  0  0  0  0  0  0  0  0  0
   17.5068   -5.0307   -0.6633 H   0  0  0  0  0  0  0  0  0  0  0  0
   16.9113   -3.2652   -1.9133 H   0  0  0  0  0  0  0  0  0  0  0  0
   16.1680   -2.1210   -4.1282 H   0  0  0  0  0  0  0  0  0  0  0  0
   16.6442   -3.6239   -4.8615 H   0  0  0  0  0  0  0  0  0  0  0  0
   18.0460   -1.6617   -3.2455 H   0  0  0  0  0  0  0  0  0  0  0  0
   18.9922   -4.4706   -3.3246 H   0  0  0  0  0  0  0  0  0  0  0  0
   19.1793   -3.2888   -2.0772 H   0  0  0  0  0  0  0  0  0  0  0  0
   20.2339   -3.2437   -3.4892 H   0  0  0  0  0  0  0  0  0  0  0  0
   18.5471   -2.7312   -6.0024 H   0  0  0  0  0  0  0  0  0  0  0  0
   19.7269   -1.7570   -5.1065 H   0  0  0  0  0  0  0  0  0  0  0  0
   18.1288   -1.1140   -5.4846 H   0  0  0  0  0  0  0  0  0  0  0  0
   14.5826   -3.6307   -4.8015 H   0  0  0  0  0  0  0  0  0  0  0  0
   13.8692   -2.0085   -4.9418 H   0  0  0  0  0  0  0  0  0  0  0  0
   12.8770   -3.4483   -4.5937 H   0  0  0  0  0  0  0  0  0  0  0  0
   12.2480   -1.6214   -3.1352 H   0  0  0  0  0  0  0  0  0  0  0  0
   12.0436   -2.5238   -0.4041 H   0  0  0  0  0  0  0  0  0  0  0  0
   12.4598   -3.8376   -1.4502 H   0  0  0  0  0  0  0  0  0  0  0  0
   10.0474   -2.0739   -1.9220 H   0  0  0  0  0  0  0  0  0  0  0  0
   11.0246   -4.5517   -3.4566 H   0  0  0  0  0  0  0  0  0  0  0  0
   10.8037   -2.9173   -4.1203 H   0  0  0  0  0  0  0  0  0  0  0  0
    9.4117   -3.8468   -3.6039 H   0  0  0  0  0  0  0  0  0  0  0  0
   10.3275   -4.9943   -1.0070 H   0  0  0  0  0  0  0  0  0  0  0  0
    8.8094   -4.1262   -1.2655 H   0  0  0  0  0  0  0  0  0  0  0  0
    9.8948   -3.6335    0.0434 H   0  0  0  0  0  0  0  0  0  0  0  0
   11.9384   -0.6451   -0.0329 H   0  0  0  0  0  0  0  0  0  0  0  0
   10.7377    0.2804   -0.9902 H   0  0  0  0  0  0  0  0  0  0  0  0
   11.7030    1.0258    0.3212 H   0  0  0  0  0  0  0  0  0  0  0  0
   12.1798    2.5178   -0.9629 H   0  0  0  0  0  0  0  0  0  0  0  0
   14.9867    2.0317   -0.4994 H   0  0  0  0  0  0  0  0  0  0  0  0
   14.3335    4.8943   -1.4724 H   0  0  0  0  0  0  0  0  0  0  0  0
   15.3408    3.8312   -2.3976 H   0  0  0  0  0  0  0  0  0  0  0  0
   15.8633    4.3095   -0.8132 H   0  0  0  0  0  0  0  0  0  0  0  0
   12.9166    4.1560    0.3520 H   0  0  0  0  0  0  0  0  0  0  0  0
   14.5044    4.0041    1.0907 H   0  0  0  0  0  0  0  0  0  0  0  0
   13.3274    2.6841    1.2564 H   0  0  0  0  0  0  0  0  0  0  0  0
   14.5782    4.7000   -4.9667 H   0  0  0  0  0  0  0  0  0  0  0  0
   13.1010    5.2815   -4.1485 H   0  0  0  0  0  0  0  0  0  0  0  0
   12.9998    4.2507   -5.5941 H   0  0  0  0  0  0  0  0  0  0  0  0
  1  2  1  0  0  0  0
  1 85  1  0  0  0  0
  1 86  1  0  0  0  0
  1 87  1  0  0  0  0
  2  3  2  0  0  0  0
  2 88  1  0  0  0  0
  3  4  1  0  0  0  0
  3 89  1  0  0  0  0
  4  5  1  0  0  0  0
  4 90  1  0  0  0  0
  4 91  1  0  0  0  0
  5  6  1  0  0  0  0
  5  7  1  0  0  0  0
  5 92  1  1  0  0  0
  6 93  1  0  0  0  0
  6 94  1  0  0  0  0
  6 95  1  0  0  0  0
  7  8  1  0  0  0  0
  7 96  1  1  0  0  0
  8 97  1  0  0  0  0
  9 10  1  0  0  0  0
  9 83  1  0  0  0  0
  9  7  1  0  0  0  0
  9 98  1  1  0  0  0
 10 11  2  0  0  0  0
 10 12  1  0  0  0  0
 12 13  1  0  0  0  0
 12 99  1  0  0  0  0
 13 14  1  0  0  0  0
 13 16  1  0  0  0  0
 13100  1  1  0  0  0
 14 15  1  0  0  0  0
 14101  1  0  0  0  0
 14102  1  0  0  0  0
 15103  1  0  0  0  0
 15104  1  0  0  0  0
 15105  1  0  0  0  0
 16 17  2  0  0  0  0
 16 18  1  0  0  0  0
 18 19  1  0  0  0  0
 18 20  1  0  0  0  0
 19106  1  0  0  0  0
 19107  1  0  0  0  0
 19108  1  0  0  0  0
 20 21  1  0  0  0  0
 20109  1  0  0  0  0
 20110  1  0  0  0  0
 21 22  2  0  0  0  0
 21 23  1  0  0  0  0
 23 24  1  0  0  0  0
 23111  1  0  0  0  0
 24 25  1  0  0  0  0
 24 29  1  0  0  0  0
 24112  1  1  0  0  0
 25 26  1  0  0  0  0
 25 27  1  0  0  0  0
 25113  1  6  0  0  0
 26114  1  0  0  0  0
 26115  1  0  0  0  0
 26116  1  0  0  0  0
 27 28  1  0  0  0  0
 27117  1  0  0  0  0
 27118  1  0  0  0  0
 28119  1  0  0  0  0
 28120  1  0  0  0  0
 28121  1  0  0  0  0
 29 30  2  0  0  0  0
 29 31  1  0  0  0  0
 31 32  1  0  0  0  0
 31122  1  0  0  0  0
 32 36  1  0  0  0  0
 32 33  1  0  0  0  0
 32123  1  6  0  0  0
 33 34  1  0  0  0  0
 33 35  1  0  0  0  0
 33124  1  0  0  0  0
 34125  1  0  0  0  0
 34126  1  0  0  0  0
 34127  1  0  0  0  0
 35128  1  0  0  0  0
 35129  1  0  0  0  0
 35130  1  0  0  0  0
 36 37  2  0  0  0  0
 36 38  1  0  0  0  0
 38 39  1  0  0  0  0
 38 40  1  0  0  0  0
 39131  1  0  0  0  0
 39132  1  0  0  0  0
 39133  1  0  0  0  0
 40 45  1  0  0  0  0
 40 41  1  0  0  0  0
 40134  1  1  0  0  0
 41 42  1  0  0  0  0
 41135  1  0  0  0  0
 41136  1  0  0  0  0
 42 43  1  0  0  0  0
 42 44  1  0  0  0  0
 42137  1  0  0  0  0
 43138  1  0  0  0  0
 43139  1  0  0  0  0
 43140  1  0  0  0  0
 44141  1  0  0  0  0
 44142  1  0  0  0  0
 44143  1  0  0  0  0
 45 46  2  0  0  0  0
 45 47  1  0  0  0  0
 47 48  1  0  0  0  0
 47144  1  0  0  0  0
 48 49  1  0  0  0  0
 48 50  1  0  0  0  0
 48145  1  1  0  0  0
 49146  1  0  0  0  0
 49147  1  0  0  0  0
 49148  1  0  0  0  0
 50 51  2  0  0  0  0
 50 52  1  0  0  0  0
 52 53  1  0  0  0  0
 52149  1  0  0  0  0
 53 55  1  0  0  0  0
 53 54  1  0  0  0  0
 53150  1  1  0  0  0
 54151  1  0  0  0  0
 54152  1  0  0  0  0
 54153  1  0  0  0  0
 55 56  2  0  0  0  0
 55 57  1  0  0  0  0
 57 58  1  0  0  0  0
 57 59  1  0  0  0  0
 58154  1  0  0  0  0
 58155  1  0  0  0  0
 58156  1  0  0  0  0
 59 60  1  0  0  0  0
 59 64  1  0  0  0  0
 59157  1  1  0  0  0
 60 61  1  0  0  0  0
 60158  1  0  0  0  0
 60159  1  0  0  0  0
 61 62  1  0  0  0  0
 61 63  1  0  0  0  0
 61160  1  0  0  0  0
 62161  1  0  0  0  0
 62162  1  0  0  0  0
 62163  1  0  0  0  0
 63164  1  0  0  0  0
 63165  1  0  0  0  0
 63166  1  0  0  0  0
 64 65  2  0  0  0  0
 64 66  1  0  0  0  0
 66 67  1  0  0  0  0
 66 68  1  0  0  0  0
 67167  1  0  0  0  0
 67168  1  0  0  0  0
 67169  1  0  0  0  0
 68 69  1  0  0  0  0
 68 73  1  0  0  0  0
 68170  1  6  0  0  0
 69 70  1  0  0  0  0
 69171  1  0  0  0  0
 69172  1  0  0  0  0
 70 71  1  0  0  0  0
 70 72  1  0  0  0  0
 70173  1  0  0  0  0
 71174  1  0  0  0  0
 71175  1  0  0  0  0
 71176  1  0  0  0  0
 72177  1  0  0  0  0
 72178  1  0  0  0  0
 72179  1  0  0  0  0
 73 74  2  0  0  0  0
 73 75  1  0  0  0  0
 75 76  1  0  0  0  0
 75 77  1  0  0  0  0
 76180  1  0  0  0  0
 76181  1  0  0  0  0
 76182  1  0  0  0  0
 77 78  1  0  0  0  0
 77 81  1  0  0  0  0
 77183  1  1  0  0  0
 78 79  1  0  0  0  0
 78 80  1  0  0  0  0
 78184  1  0  0  0  0
 79185  1  0  0  0  0
 79186  1  0  0  0  0
 79187  1  0  0  0  0
 80188  1  0  0  0  0
 80189  1  0  0  0  0
 80190  1  0  0  0  0
 81 82  2  0  0  0  0
 81 83  1  0  0  0  0
 83 84  1  0  0  0  0
 84191  1  0  0  0  0
 84192  1  0  0  0  0
 84193  1  0  0  0  0
M  END
>  <Energy>
597.131

$$$$