90
 OpenBabel03292021543D

194194  0  0  1  0  0  0  0  0999 V2000
    4.9943   -1.1981    2.3566 C   0  0  0  0  0  0  0  0  0  0  0  0
    6.2825   -1.9344    1.9207 C   0  0  0  0  0  0  0  0  0  0  0  0
    7.4751   -1.8221    2.9217 C   0  0  0  0  0  0  0  0  0  0  0  0
    8.9574   -2.0669    2.3665 C   0  0  0  0  0  0  0  0  0  0  0  0
    9.8495   -3.2722    2.9640 C   0  0  0  0  0  0  0  0  0  0  0  0
   11.4974   -3.5237    2.6148 C   0  0  0  0  0  0  0  0  0  0  0  0
   12.7634   -3.1886    3.6983 C   0  0  1  0  0  0  0  0  0  0  0  0
   14.4620   -3.0870    3.2401 C   0  0  0  0  0  0  0  0  0  0  0  0
   14.7766   -2.8563    2.0717 O   0  0  0  0  0  0  0  0  0  0  0  0
   15.5104   -3.2469    4.2488 N   0  0  0  0  0  0  0  0  0  0  0  0
   17.1378   -3.1876    4.0543 C   0  0  1  0  0  0  0  0  0  0  0  0
   17.7773   -4.5518    3.6682 C   0  0  0  0  0  0  0  0  0  0  0  0
   19.2658   -4.4789    3.2656 C   0  0  0  0  0  0  0  0  0  0  0  0
   18.1837   -2.2143    4.9360 C   0  0  0  0  0  0  0  0  0  0  0  0
   18.1027   -1.0037    4.7246 O   0  0  0  0  0  0  0  0  0  0  0  0
   19.2187   -2.5768    5.8181 N   0  0  0  0  0  0  0  0  0  0  0  0
   19.2842   -3.8509    6.5136 C   0  0  0  0  0  0  0  0  0  0  0  0
   19.9476   -1.4825    6.5764 C   0  0  0  0  0  0  0  0  0  0  0  0
   20.6898   -0.1536    6.1295 C   0  0  0  0  0  0  0  0  0  0  0  0
   20.1848    0.9285    6.4607 O   0  0  0  0  0  0  0  0  0  0  0  0
   21.9703   -0.1786    5.5622 N   0  0  0  0  0  0  0  0  0  0  0  0
   22.6063   -1.4178    5.1557 C   0  0  0  0  0  0  0  0  0  0  0  0
   22.7004    1.1262    5.3106 C   0  0  2  0  0  0  0  0  0  0  0  0
   22.7978    1.4110    3.7867 C   0  0  0  0  0  0  0  0  0  0  0  0
   21.4410    1.7473    3.1335 C   0  0  0  0  0  0  0  0  0  0  0  0
   20.8813    3.0800    3.6216 C   0  0  0  0  0  0  0  0  0  0  0  0
   21.5793    1.8027    1.6114 C   0  0  0  0  0  0  0  0  0  0  0  0
   24.1355    1.2368    5.9404 C   0  0  0  0  0  0  0  0  0  0  0  0
   24.9760    0.3438    5.7715 O   0  0  0  0  0  0  0  0  0  0  0  0
   24.5707    2.3284    6.6530 N   0  0  0  0  0  0  0  0  0  0  0  0
   23.8752    3.4900    7.2944 C   0  0  2  0  0  0  0  0  0  0  0  0
   22.7747    2.9995    8.2681 C   0  0  0  0  0  0  0  0  0  0  0  0
   21.9501    4.1148    8.9061 C   0  0  0  0  0  0  0  0  0  0  0  0
   23.3757    2.1216    9.3793 C   0  0  0  0  0  0  0  0  0  0  0  0
   23.4316    4.4945    6.1878 C   0  0  0  0  0  0  0  0  0  0  0  0
   23.1313    4.0275    5.0931 O   0  0  0  0  0  0  0  0  0  0  0  0
   23.3557    5.8591    6.3937 N   0  0  0  0  0  0  0  0  0  0  0  0
   23.9013    6.5789    7.5326 C   0  0  0  0  0  0  0  0  0  0  0  0
   22.7630    6.6818    5.2693 C   0  0  2  0  0  0  0  0  0  0  0  0
   23.7928    7.5239    4.4872 C   0  0  0  0  0  0  0  0  0  0  0  0
   24.8567    6.7432    3.6876 C   0  0  0  0  0  0  0  0  0  0  0  0
   24.2806    5.8088    2.6202 C   0  0  0  0  0  0  0  0  0  0  0  0
   25.7888    7.7395    2.9884 C   0  0  0  0  0  0  0  0  0  0  0  0
   21.6320    7.6380    5.7393 C   0  0  0  0  0  0  0  0  0  0  0  0
   21.8371    8.5343    6.5637 O   0  0  0  0  0  0  0  0  0  0  0  0
   20.3671    7.5285    5.2312 N   0  0  0  0  0  0  0  0  0  0  0  0
   19.7906    6.5043    4.3432 C   0  0  1  0  0  0  0  0  0  0  0  0
   18.3726    6.2352    4.7910 C   0  0  0  0  0  0  0  0  0  0  0  0
   20.1047    6.8659    2.8523 C   0  0  0  0  0  0  0  0  0  0  0  0
   21.2350    7.2806    2.5677 O   0  0  0  0  0  0  0  0  0  0  0  0
   19.3320    6.6087    1.7661 N   0  0  0  0  0  0  0  0  0  0  0  0
   17.9429    7.0007    1.4965 C   0  0  2  0  0  0  0  0  0  0  0  0
   17.5492    8.3480    2.1058 C   0  0  0  0  0  0  0  0  0  0  0  0
   16.9372    5.8690    1.7911 C   0  0  0  0  0  0  0  0  0  0  0  0
   16.1915    5.9942    2.7405 O   0  0  0  0  0  0  0  0  0  0  0  0
   16.9989    4.7343    0.9662 N   0  0  0  0  0  0  0  0  0  0  0  0
   16.8743    4.8973   -0.4753 C   0  0  0  0  0  0  0  0  0  0  0  0
   16.5005    3.4305    1.4684 C   0  0  1  0  0  0  0  0  0  0  0  0
   17.3696    2.8672    2.5814 C   0  0  0  0  0  0  0  0  0  0  0  0
   16.8629    1.5715    3.2125 C   0  0  0  0  0  0  0  0  0  0  0  0
   17.2996    0.3766    2.3651 C   0  0  0  0  0  0  0  0  0  0  0  0
   17.3513    1.5310    4.6631 C   0  0  0  0  0  0  0  0  0  0  0  0
   14.9578    3.3394    1.5441 C   0  0  0  0  0  0  0  0  0  0  0  0
   14.3907    2.8553    0.5589 O   0  0  0  0  0  0  0  0  0  0  0  0
   14.2525    3.9136    2.5917 N   0  0  0  0  0  0  0  0  0  0  0  0
   14.7729    3.9712    3.9578 C   0  0  0  0  0  0  0  0  0  0  0  0
   12.7874    4.0640    2.5218 C   0  0  1  0  0  0  0  0  0  0  0  0
   12.1563    4.4931    1.1895 C   0  0  0  0  0  0  0  0  0  0  0  0
   10.6183    4.5834    1.2200 C   0  0  0  0  0  0  0  0  0  0  0  0
   10.1395    5.6913    2.1584 C   0  0  0  0  0  0  0  0  0  0  0  0
   10.0816    4.8216   -0.1932 C   0  0  0  0  0  0  0  0  0  0  0  0
   12.1206    2.9594    3.4101 C   0  0  0  0  0  0  0  0  0  0  0  0
   11.6422    3.3454    4.4890 O   0  0  0  0  0  0  0  0  0  0  0  0
   12.2207    1.6386    3.0818 N   0  0  0  0  0  0  0  0  0  0  0  0
   12.0755    1.2440    1.6945 C   0  0  0  0  0  0  0  0  0  0  0  0
   12.6015    0.5578    4.1086 C   0  0  1  0  0  0  0  0  0  0  0  0
   12.3653    0.7795    5.6275 C   0  0  0  0  0  0  0  0  0  0  0  0
   13.4023    1.6557    6.3276 C   0  0  0  0  0  0  0  0  0  0  0  0
   10.9255    1.0744    6.0390 C   0  0  0  0  0  0  0  0  0  0  0  0
   12.1427   -0.8656    3.6750 C   0  0  0  0  0  0  0  0  0  0  0  0
   11.6886   -1.0501    2.5455 O   0  0  0  0  0  0  0  0  0  0  0  0
   12.4302   -1.9851    4.4848 N   0  0  0  0  0  0  0  0  0  0  0  0
   11.4830   -2.2548    5.5692 C   0  0  0  0  0  0  0  0  0  0  0  0
    4.1578   -1.4512    1.6884 H   0  0  0  0  0  0  0  0  0  0  0  0
    5.1117   -0.1088    2.3035 H   0  0  0  0  0  0  0  0  0  0  0  0
    4.6823   -1.4572    3.3736 H   0  0  0  0  0  0  0  0  0  0  0  0
    6.5596   -1.5351    0.9393 H   0  0  0  0  0  0  0  0  0  0  0  0
    6.0240   -2.9903    1.7847 H   0  0  0  0  0  0  0  0  0  0  0  0
    7.2705   -2.4540    3.7921 H   0  0  0  0  0  0  0  0  0  0  0  0
    7.4421   -0.7845    3.2903 H   0  0  0  0  0  0  0  0  0  0  0  0
    9.4574   -1.1235    2.5935 H   0  0  0  0  0  0  0  0  0  0  0  0
    8.9117   -2.1488    1.2750 H   0  0  0  0  0  0  0  0  0  0  0  0
    9.3495   -4.1680    2.5672 H   0  0  0  0  0  0  0  0  0  0  0  0
    9.6883   -3.3133    4.0413 H   0  0  0  0  0  0  0  0  0  0  0  0
   11.5728   -4.6073    2.4506 H   0  0  0  0  0  0  0  0  0  0  0  0
   11.7119   -3.0900    1.6300 H   0  0  0  0  0  0  0  0  0  0  0  0
   12.7850   -4.0472    4.3856 H   0  0  0  0  0  0  0  0  0  0  0  0
   15.2030   -3.4214    5.1941 H   0  0  0  0  0  0  0  0  0  0  0  0
   17.1782   -2.6578    3.0909 H   0  0  0  0  0  0  0  0  0  0  0  0
   17.2355   -4.9545    2.8054 H   0  0  0  0  0  0  0  0  0  0  0  0
   17.6489   -5.2876    4.4668 H   0  0  0  0  0  0  0  0  0  0  0  0
   19.4789   -3.6180    2.6233 H   0  0  0  0  0  0  0  0  0  0  0  0
   19.5674   -5.3846    2.7284 H   0  0  0  0  0  0  0  0  0  0  0  0
   19.9410   -4.4176    4.1233 H   0  0  0  0  0  0  0  0  0  0  0  0
   20.3124   -4.2322    6.4342 H   0  0  0  0  0  0  0  0  0  0  0  0
   18.5813   -4.5810    6.1424 H   0  0  0  0  0  0  0  0  0  0  0  0
   19.0699   -3.6880    7.5769 H   0  0  0  0  0  0  0  0  0  0  0  0
   20.7248   -1.9954    7.1660 H   0  0  0  0  0  0  0  0  0  0  0  0
   19.2172   -1.1431    7.3247 H   0  0  0  0  0  0  0  0  0  0  0  0
   21.9081   -1.9905    4.5413 H   0  0  0  0  0  0  0  0  0  0  0  0
   22.8664   -1.9945    6.0476 H   0  0  0  0  0  0  0  0  0  0  0  0
   23.5125   -1.2363    4.5728 H   0  0  0  0  0  0  0  0  0  0  0  0
   22.1152    1.9195    5.7611 H   0  0  0  0  0  0  0  0  0  0  0  0
   23.5080    2.2238    3.5897 H   0  0  0  0  0  0  0  0  0  0  0  0
   23.2333    0.5421    3.2781 H   0  0  0  0  0  0  0  0  0  0  0  0
   20.7236    0.9556    3.3746 H   0  0  0  0  0  0  0  0  0  0  0  0
   21.5455    3.9043    3.3532 H   0  0  0  0  0  0  0  0  0  0  0  0
   20.7063    3.0913    4.7006 H   0  0  0  0  0  0  0  0  0  0  0  0
   19.9300    3.3113    3.1539 H   0  0  0  0  0  0  0  0  0  0  0  0
   22.2410    2.6189    1.3015 H   0  0  0  0  0  0  0  0  0  0  0  0
   20.6021    1.9660    1.1444 H   0  0  0  0  0  0  0  0  0  0  0  0
   21.9842    0.8650    1.2196 H   0  0  0  0  0  0  0  0  0  0  0  0
   25.5454    2.2234    6.9055 H   0  0  0  0  0  0  0  0  0  0  0  0
   24.6723    3.9639    7.8752 H   0  0  0  0  0  0  0  0  0  0  0  0
   22.0640    2.3716    7.7283 H   0  0  0  0  0  0  0  0  0  0  0  0
   22.5688    4.7751    9.5205 H   0  0  0  0  0  0  0  0  0  0  0  0
   21.1761    3.6871    9.5541 H   0  0  0  0  0  0  0  0  0  0  0  0
   21.4344    4.7130    8.1486 H   0  0  0  0  0  0  0  0  0  0  0  0
   24.0331    2.7033   10.0338 H   0  0  0  0  0  0  0  0  0  0  0  0
   23.9567    1.2886    8.9708 H   0  0  0  0  0  0  0  0  0  0  0  0
   22.5827    1.6848    9.9966 H   0  0  0  0  0  0  0  0  0  0  0  0
   24.4290    5.9193    8.2262 H   0  0  0  0  0  0  0  0  0  0  0  0
   23.0944    7.0672    8.0883 H   0  0  0  0  0  0  0  0  0  0  0  0
   24.6203    7.3324    7.1923 H   0  0  0  0  0  0  0  0  0  0  0  0
   22.3158    5.9981    4.5570 H   0  0  0  0  0  0  0  0  0  0  0  0
   23.2514    8.1787    3.7844 H   0  0  0  0  0  0  0  0  0  0  0  0
   24.3003    8.2147    5.1701 H   0  0  0  0  0  0  0  0  0  0  0  0
   25.4524    6.1489    4.3900 H   0  0  0  0  0  0  0  0  0  0  0  0
   23.7115    6.3611    1.8670 H   0  0  0  0  0  0  0  0  0  0  0  0
   23.6234    5.0489    3.0381 H   0  0  0  0  0  0  0  0  0  0  0  0
   25.0881    5.2761    2.1062 H   0  0  0  0  0  0  0  0  0  0  0  0
   25.2423    8.3307    2.2428 H   0  0  0  0  0  0  0  0  0  0  0  0
   26.5989    7.2159    2.4706 H   0  0  0  0  0  0  0  0  0  0  0  0
   26.2373    8.4331    3.7056 H   0  0  0  0  0  0  0  0  0  0  0  0
   19.7579    8.2719    5.5484 H   0  0  0  0  0  0  0  0  0  0  0  0
   20.3359    5.5782    4.5384 H   0  0  0  0  0  0  0  0  0  0  0  0
   17.7105    7.0916    4.6620 H   0  0  0  0  0  0  0  0  0  0  0  0
   18.3509    5.9853    5.8591 H   0  0  0  0  0  0  0  0  0  0  0  0
   17.9659    5.3793    4.2659 H   0  0  0  0  0  0  0  0  0  0  0  0
   19.9191    6.7763    0.9569 H   0  0  0  0  0  0  0  0  0  0  0  0
   17.9088    7.1778    0.4190 H   0  0  0  0  0  0  0  0  0  0  0  0
   17.9009    8.4766    3.1288 H   0  0  0  0  0  0  0  0  0  0  0  0
   16.4626    8.4851    2.1026 H   0  0  0  0  0  0  0  0  0  0  0  0
   17.9891    9.1622    1.5231 H   0  0  0  0  0  0  0  0  0  0  0  0
   17.3914    5.7774   -0.8474 H   0  0  0  0  0  0  0  0  0  0  0  0
   15.8111    4.9951   -0.7196 H   0  0  0  0  0  0  0  0  0  0  0  0
   17.2871    4.0190   -0.9828 H   0  0  0  0  0  0  0  0  0  0  0  0
   16.7286    2.7285    0.6481 H   0  0  0  0  0  0  0  0  0  0  0  0
   17.5667    3.6180    3.3425 H   0  0  0  0  0  0  0  0  0  0  0  0
   18.3527    2.6696    2.1392 H   0  0  0  0  0  0  0  0  0  0  0  0
   15.7728    1.5433    3.2464 H   0  0  0  0  0  0  0  0  0  0  0  0
   18.3882    0.2500    2.3653 H   0  0  0  0  0  0  0  0  0  0  0  0
   16.9774    0.4892    1.3250 H   0  0  0  0  0  0  0  0  0  0  0  0
   16.8354   -0.5398    2.7299 H   0  0  0  0  0  0  0  0  0  0  0  0
   18.4379    1.4262    4.7032 H   0  0  0  0  0  0  0  0  0  0  0  0
   16.8684    0.7242    5.2179 H   0  0  0  0  0  0  0  0  0  0  0  0
   17.0925    2.4454    5.2060 H   0  0  0  0  0  0  0  0  0  0  0  0
   15.8233    4.2011    4.0251 H   0  0  0  0  0  0  0  0  0  0  0  0
   14.6366    2.9912    4.4076 H   0  0  0  0  0  0  0  0  0  0  0  0
   14.2319    4.7179    4.5464 H   0  0  0  0  0  0  0  0  0  0  0  0
   12.6279    4.9903    3.1351 H   0  0  0  0  0  0  0  0  0  0  0  0
   12.4347    3.8501    0.3481 H   0  0  0  0  0  0  0  0  0  0  0  0
   12.5756    5.4675    0.9118 H   0  0  0  0  0  0  0  0  0  0  0  0
   10.2033    3.6303    1.5670 H   0  0  0  0  0  0  0  0  0  0  0  0
   10.5831    6.6537    1.8880 H   0  0  0  0  0  0  0  0  0  0  0  0
   10.4098    5.4742    3.1966 H   0  0  0  0  0  0  0  0  0  0  0  0
    9.0532    5.7881    2.1202 H   0  0  0  0  0  0  0  0  0  0  0  0
   10.4896    5.7398   -0.6264 H   0  0  0  0  0  0  0  0  0  0  0  0
    8.9897    4.9004   -0.1857 H   0  0  0  0  0  0  0  0  0  0  0  0
   10.3480    3.9871   -0.8538 H   0  0  0  0  0  0  0  0  0  0  0  0
   12.1337    2.0735    0.9967 H   0  0  0  0  0  0  0  0  0  0  0  0
   11.0684    0.8570    1.5513 H   0  0  0  0  0  0  0  0  0  0  0  0
   12.8470    0.5361    1.4047 H   0  0  0  0  0  0  0  0  0  0  0  0
   13.6894    0.5025    3.9630 H   0  0  0  0  0  0  0  0  0  0  0  0
   12.5980   -0.1792    6.0985 H   0  0  0  0  0  0  0  0  0  0  0  0
   13.2462    2.7210    6.1622 H   0  0  0  0  0  0  0  0  0  0  0  0
   14.4119    1.3851    6.0021 H   0  0  0  0  0  0  0  0  0  0  0  0
   13.3650    1.4842    7.4093 H   0  0  0  0  0  0  0  0  0  0  0  0
   10.7076    2.1389    6.1172 H   0  0  0  0  0  0  0  0  0  0  0  0
   10.7315    0.6557    7.0328 H   0  0  0  0  0  0  0  0  0  0  0  0
   10.2066    0.6266    5.3456 H   0  0  0  0  0  0  0  0  0  0  0  0
   11.9678   -2.0805    6.5296 H   0  0  0  0  0  0  0  0  0  0  0  0
   11.1702   -3.3058    5.5708 H   0  0  0  0  0  0  0  0  0  0  0  0
   10.5855   -1.6388    5.4702 H   0  0  0  0  0  0  0  0  0  0  0  0
  1  2  1  0  0  0  0
  1 84  1  0  0  0  0
  1 85  1  0  0  0  0
  1 86  1  0  0  0  0
  2  3  1  0  0  0  0
  2 87  1  0  0  0  0
  2 88  1  0  0  0  0
  3  4  1  0  0  0  0
  3 89  1  0  0  0  0
  3 90  1  0  0  0  0
  4  5  1  0  0  0  0
  4 91  1  0  0  0  0
  4 92  1  0  0  0  0
  5  6  1  0  0  0  0
  5 93  1  0  0  0  0
  5 94  1  0  0  0  0
  6  7  1  0  0  0  0
  6 95  1  0  0  0  0
  6 96  1  0  0  0  0
  7  8  1  0  0  0  0
  7 82  1  0  0  0  0
  7 97  1  1  0  0  0
  8  9  2  0  0  0  0
  8 10  1  0  0  0  0
 10 11  1  0  0  0  0
 10 98  1  0  0  0  0
 11 12  1  0  0  0  0
 11 14  1  0  0  0  0
 11 99  1  1  0  0  0
 12 13  1  0  0  0  0
 12100  1  0  0  0  0
 12101  1  0  0  0  0
 13102  1  0  0  0  0
 13103  1  0  0  0  0
 13104  1  0  0  0  0
 14 15  2  0  0  0  0
 14 16  1  0  0  0  0
 16 17  1  0  0  0  0
 16 18  1  0  0  0  0
 17105  1  0  0  0  0
 17106  1  0  0  0  0
 17107  1  0  0  0  0
 18 19  1  0  0  0  0
 18108  1  0  0  0  0
 18109  1  0  0  0  0
 19 20  2  0  0  0  0
 19 21  1  0  0  0  0
 21 22  1  0  0  0  0
 21 23  1  0  0  0  0
 22110  1  0  0  0  0
 22111  1  0  0  0  0
 22112  1  0  0  0  0
 23 28  1  0  0  0  0
 23 24  1  0  0  0  0
 23113  1  1  0  0  0
 24 25  1  0  0  0  0
 24114  1  0  0  0  0
 24115  1  0  0  0  0
 25 26  1  0  0  0  0
 25 27  1  0  0  0  0
 25116  1  0  0  0  0
 26117  1  0  0  0  0
 26118  1  0  0  0  0
 26119  1  0  0  0  0
 27120  1  0  0  0  0
 27121  1  0  0  0  0
 27122  1  0  0  0  0
 28 29  2  0  0  0  0
 28 30  1  0  0  0  0
 30 31  1  0  0  0  0
 30123  1  0  0  0  0
 31 35  1  0  0  0  0
 31 32  1  0  0  0  0
 31124  1  1  0  0  0
 32 33  1  0  0  0  0
 32 34  1  0  0  0  0
 32125  1  0  0  0  0
 33126  1  0  0  0  0
 33127  1  0  0  0  0
 33128  1  0  0  0  0
 34129  1  0  0  0  0
 34130  1  0  0  0  0
 34131  1  0  0  0  0
 35 36  2  0  0  0  0
 35 37  1  0  0  0  0
 37 38  1  0  0  0  0
 37 39  1  0  0  0  0
 38132  1  0  0  0  0
 38133  1  0  0  0  0
 38134  1  0  0  0  0
 39 44  1  0  0  0  0
 39 40  1  0  0  0  0
 39135  1  6  0  0  0
 40 41  1  0  0  0  0
 40136  1  0  0  0  0
 40137  1  0  0  0  0
 41 42  1  0  0  0  0
 41 43  1  0  0  0  0
 41138  1  0  0  0  0
 42139  1  0  0  0  0
 42140  1  0  0  0  0
 42141  1  0  0  0  0
 43142  1  0  0  0  0
 43143  1  0  0  0  0
 43144  1  0  0  0  0
 44 45  2  0  0  0  0
 44 46  1  0  0  0  0
 46 47  1  0  0  0  0
 46145  1  0  0  0  0
 47 48  1  0  0  0  0
 47 49  1  0  0  0  0
 47146  1  1  0  0  0
 48147  1  0  0  0  0
 48148  1  0  0  0  0
 48149  1  0  0  0  0
 49 50  2  0  0  0  0
 49 51  1  0  0  0  0
 51 52  1  0  0  0  0
 51150  1  0  0  0  0
 52 54  1  0  0  0  0
 52 53  1  0  0  0  0
 52151  1  6  0  0  0
 53152  1  0  0  0  0
 53153  1  0  0  0  0
 53154  1  0  0  0  0
 54 55  2  0  0  0  0
 54 56  1  0  0  0  0
 56 57  1  0  0  0  0
 56 58  1  0  0  0  0
 57155  1  0  0  0  0
 57156  1  0  0  0  0
 57157  1  0  0  0  0
 58 59  1  0  0  0  0
 58 63  1  0  0  0  0
 58158  1  6  0  0  0
 59 60  1  0  0  0  0
 59159  1  0  0  0  0
 59160  1  0  0  0  0
 60 61  1  0  0  0  0
 60 62  1  0  0  0  0
 60161  1  0  0  0  0
 61162  1  0  0  0  0
 61163  1  0  0  0  0
 61164  1  0  0  0  0
 62165  1  0  0  0  0
 62166  1  0  0  0  0
 62167  1  0  0  0  0
 63 64  2  0  0  0  0
 63 65  1  0  0  0  0
 65 66  1  0  0  0  0
 65 67  1  0  0  0  0
 66168  1  0  0  0  0
 66169  1  0  0  0  0
 66170  1  0  0  0  0
 67 68  1  0  0  0  0
 67 72  1  0  0  0  0
 67171  1  1  0  0  0
 68 69  1  0  0  0  0
 68172  1  0  0  0  0
 68173  1  0  0  0  0
 69 70  1  0  0  0  0
 69 71  1  0  0  0  0
 69174  1  0  0  0  0
 70175  1  0  0  0  0
 70176  1  0  0  0  0
 70177  1  0  0  0  0
 71178  1  0  0  0  0
 71179  1  0  0  0  0
 71180  1  0  0  0  0
 72 73  2  0  0  0  0
 72 74  1  0  0  0  0
 74 75  1  0  0  0  0
 74 76  1  0  0  0  0
 75181  1  0  0  0  0
 75182  1  0  0  0  0
 75183  1  0  0  0  0
 76 77  1  0  0  0  0
 76 80  1  0  0  0  0
 76184  1  6  0  0  0
 77 78  1  0  0  0  0
 77 79  1  0  0  0  0
 77185  1  0  0  0  0
 78186  1  0  0  0  0
 78187  1  0  0  0  0
 78188  1  0  0  0  0
 79189  1  0  0  0  0
 79190  1  0  0  0  0
 79191  1  0  0  0  0
 80 81  2  0  0  0  0
 80 82  1  0  0  0  0
 82 83  1  0  0  0  0
 83192  1  0  0  0  0
 83193  1  0  0  0  0
 83194  1  0  0  0  0
M  END
>  <Energy>
496.239

$$$$