56945530
  -OEChem-03242010103D

 43 45  0     0  0  0  0  0  0999 V2000
    7.1180   -0.3921    0.0127 O   0  0  0  0  0  0  0  0  0  0  0  0
    1.3948    2.2310   -0.3476 O   0  0  0  0  0  0  0  0  0  0  0  0
    6.3183    2.1639    0.7588 O   0  0  0  0  0  0  0  0  0  0  0  0
   -0.5388   -3.0893   -0.6789 O   0  5  0  0  0  0  0  0  0  0  0  0
   -0.5075   -2.7551    1.4905 O   0  0  0  0  0  0  0  0  0  0  0  0
    0.7691   -0.0164   -0.0595 N   0  0  0  0  0  0  0  0  0  0  0  0
   -0.7832   -2.3822    0.3264 N   0  3  0  0  0  0  0  0  0  0  0  0
   -3.4127    0.2070   -0.0339 C   0  0  0  0  0  0  0  0  0  0  0  0
   -0.6282    0.0386   -0.0489 C   0  0  0  0  0  0  0  0  0  0  0  0
   -1.3954   -1.1108    0.1394 C   0  0  0  0  0  0  0  0  0  0  0  0
   -2.7876   -1.0267    0.1468 C   0  0  0  0  0  0  0  0  0  0  0  0
   -4.8569    0.2950   -0.0274 C   0  0  0  0  0  0  0  0  0  0  0  0
   -2.6455    1.3567   -0.2221 C   0  0  0  0  0  0  0  0  0  0  0  0
   -1.2532    1.2726   -0.2295 C   0  0  0  0  0  0  0  0  0  0  0  0
    3.1072    0.6694   -0.1447 C   0  0  0  0  0  0  0  0  0  0  0  0
    1.6699    1.0447   -0.2031 C   0  0  0  0  0  0  0  0  0  0  0  0
   -5.5361    0.5217    1.1695 C   0  0  0  0  0  0  0  0  0  0  0  0
   -5.5698    0.1531   -1.2178 C   0  0  0  0  0  0  0  0  0  0  0  0
    4.0543    1.5995    0.2836 C   0  0  0  0  0  0  0  0  0  0  0  0
    3.5084   -0.6132   -0.5184 C   0  0  0  0  0  0  0  0  0  0  0  0
    5.4027    1.2469    0.3383 C   0  0  0  0  0  0  0  0  0  0  0  0
    5.8040   -0.0356   -0.0352 C   0  0  0  0  0  0  0  0  0  0  0  0
    4.8568   -0.9657   -0.4636 C   0  0  0  0  0  0  0  0  0  0  0  0
   -6.9285    0.6066    1.1762 C   0  0  0  0  0  0  0  0  0  0  0  0
   -6.9620    0.2380   -1.2113 C   0  0  0  0  0  0  0  0  0  0  0  0
   -7.6414    0.4647   -0.0143 C   0  0  0  0  0  0  0  0  0  0  0  0
    7.4433   -1.7223   -0.3861 C   0  0  0  0  0  0  0  0  0  0  0  0
   -3.3851   -1.9251    0.2938 H   0  0  0  0  0  0  0  0  0  0  0  0
   -3.1184    2.3256   -0.3659 H   0  0  0  0  0  0  0  0  0  0  0  0
   -0.7403    2.2094   -0.3881 H   0  0  0  0  0  0  0  0  0  0  0  0
    1.1540   -0.9396    0.1122 H   0  0  0  0  0  0  0  0  0  0  0  0
   -4.9958    0.6346    2.1065 H   0  0  0  0  0  0  0  0  0  0  0  0
   -5.0559   -0.0242   -2.1597 H   0  0  0  0  0  0  0  0  0  0  0  0
    3.7480    2.5994    0.5815 H   0  0  0  0  0  0  0  0  0  0  0  0
    2.8126   -1.3570   -0.8951 H   0  0  0  0  0  0  0  0  0  0  0  0
    5.0968   -1.9760   -0.7770 H   0  0  0  0  0  0  0  0  0  0  0  0
   -7.4575    0.7831    2.1081 H   0  0  0  0  0  0  0  0  0  0  0  0
   -7.5173    0.1276   -2.1382 H   0  0  0  0  0  0  0  0  0  0  0  0
   -8.7254    0.5307   -0.0092 H   0  0  0  0  0  0  0  0  0  0  0  0
    5.8602    2.9941    0.9751 H   0  0  0  0  0  0  0  0  0  0  0  0
    8.5278   -1.8333   -0.2832 H   0  0  0  0  0  0  0  0  0  0  0  0
    7.2050   -1.8970   -1.4409 H   0  0  0  0  0  0  0  0  0  0  0  0
    6.9839   -2.4657    0.2742 H   0  0  0  0  0  0  0  0  0  0  0  0
  1 22  1  0  0  0  0
  1 27  1  0  0  0  0
  2 16  2  0  0  0  0
  3 21  1  0  0  0  0
  3 40  1  0  0  0  0
  4  7  1  0  0  0  0
  5  7  2  0  0  0  0
  6  9  1  0  0  0  0
  6 16  1  0  0  0  0
  6 31  1  0  0  0  0
  7 10  1  0  0  0  0
  8 11  2  0  0  0  0
  8 12  1  0  0  0  0
  8 13  1  0  0  0  0
  9 10  2  0  0  0  0
  9 14  1  0  0  0  0
 10 11  1  0  0  0  0
 11 28  1  0  0  0  0
 12 17  2  0  0  0  0
 12 18  1  0  0  0  0
 13 14  2  0  0  0  0
 13 29  1  0  0  0  0
 14 30  1  0  0  0  0
 15 16  1  0  0  0  0
 15 19  2  0  0  0  0
 15 20  1  0  0  0  0
 17 24  1  0  0  0  0
 17 32  1  0  0  0  0
 18 25  2  0  0  0  0
 18 33  1  0  0  0  0
 19 21  1  0  0  0  0
 19 34  1  0  0  0  0
 20 23  2  0  0  0  0
 20 35  1  0  0  0  0
 21 22  2  0  0  0  0
 22 23  1  0  0  0  0
 23 36  1  0  0  0  0
 24 26  2  0  0  0  0
 24 37  1  0  0  0  0
 25 26  1  0  0  0  0
 25 38  1  0  0  0  0
 26 39  1  0  0  0  0
 27 41  1  0  0  0  0
 27 42  1  0  0  0  0
 27 43  1  0  0  0  0
M  CHG  2   4  -1   7   1
M  END
> <PUBCHEM_COMPOUND_CID>
56945530

> <PUBCHEM_CONFORMER_RMSD>
0.8

> <PUBCHEM_CONFORMER_DIVERSEORDER>
1
18
12
7
15
9
11
14
5
16
10
3
13
8
17
4
6
2

> <PUBCHEM_MMFF94_PARTIAL_CHARGES>
38
1 -0.36
10 0.13
11 -0.15
13 -0.15
14 -0.15
15 0.09
16 0.54
17 -0.15
18 -0.15
19 -0.15
2 -0.57
20 -0.15
21 0.08
22 0.08
23 -0.15
24 -0.15
25 -0.15
26 -0.15
27 0.28
28 0.15
29 0.15
3 -0.53
30 0.15
31 0.37
32 0.15
33 0.15
34 0.15
35 0.15
36 0.15
37 0.15
38 0.15
39 0.15
4 -0.52
40 0.45
5 -0.52
6 -0.55
7 0.91
9 0.12

> <PUBCHEM_EFFECTIVE_ROTOR_COUNT>
6

> <PUBCHEM_PHARMACOPHORE_FEATURES>
10
1 1 acceptor
1 2 acceptor
1 3 donor
1 4 acceptor
1 4 anion
1 5 acceptor
1 6 donor
6 12 17 18 24 25 26 rings
6 15 19 20 21 22 23 rings
6 8 9 10 11 13 14 rings

> <PUBCHEM_HEAVY_ATOM_COUNT>
27

> <PUBCHEM_ATOM_DEF_STEREO_COUNT>
0

> <PUBCHEM_ATOM_UDEF_STEREO_COUNT>
0

> <PUBCHEM_BOND_DEF_STEREO_COUNT>
0

> <PUBCHEM_BOND_UDEF_STEREO_COUNT>
0

> <PUBCHEM_ISOTOPIC_ATOM_COUNT>
0

> <PUBCHEM_COMPONENT_COUNT>
1

> <PUBCHEM_CACTVS_TAUTO_COUNT>
6

> <PUBCHEM_CONFORMER_ID>
0364EB7A00000001

> <PUBCHEM_MMFF94_ENERGY>
105.8577

> <PUBCHEM_FEATURE_SELFOVERLAP>
50.829

> <PUBCHEM_SHAPE_FINGERPRINT>
10 15 17967529116852097912
10299344 5 17775566437766291805
10835480 77 18270677705482092184
10906281 52 18200049437362105372
11135926 11 18410570666218261911
11315181 36 17560801057403136721
11456790 92 18202007603172805824
11578080 2 17201342217089608656
12107698 1 16773795896289477393
12236239 1 17846499227894739765
12838862 33 18335686253016678244
12977781 61 17559701566507082215
13533116 47 17988644065105198474
13685833 64 18408325467220482652
13914758 101 17203336576136322720
14251764 18 18059857268145757152
14617045 38 18261116253682742378
14856354 85 14996291327620784825
15183329 4 18411134723202028811
15419008 47 17749101188644310157
15849732 13 17458347446206610166
15927050 60 18187079576911406755
19141452 34 18339079392975921366
19315958 150 18410576228005718040
20567600 254 18113896048922537591
21033648 29 17988069128114319544
21130935 74 18272932756306334922
21236236 1 18339079414989315007
21267235 1 18336552633883138860
21403212 168 18335135380358442587
21781051 124 17750821954601267587
21859007 373 17677310767294387853
22224240 67 18334577954239275291
23536379 177 16917071044970901317
23559900 14 18270111452155429792
23569917 315 18410580625947468295
249057 3 18334579062351491076
3004659 81 18260547819098100140
3178227 256 18261404355762303705
335352 9 18410014342813517078
3383291 50 18335140894727582339
340366 18 17749958872016359620
3633792 109 18272089357498554633
38695281 34 18343866593979711111
4073 2 18262801895059927250
4340502 62 16225763008468398947
4408954 64 15072604172986452979
444769 64 18413108368629491663
5385378 56 18262523589647878747
59755656 215 18260266313297073735
59755656 520 18412538834501560535
6138700 20 18408604742962811319
6669772 16 18410013196021313135

> <PUBCHEM_SHAPE_MULTIPOLES>
516.34
21.33
2.2
0.96
1.78
1.17
-0.07
-2.7
0.2
2.25
-0.28
-1.21
0.12
0.59

> <PUBCHEM_SHAPE_SELFOVERLAP>
1131.268

> <PUBCHEM_SHAPE_VOLUME>
278.5

> <PUBCHEM_COORDINATE_TYPE>
2
5
10

$$$$