56946615
  -OEChem-03242010103D

 50 52  0     0  0  0  0  0  0999 V2000
    5.2253   -2.7689   -0.4370 O   0  0  0  0  0  0  0  0  0  0  0  0
    5.2866    1.9172    0.5489 O   0  0  0  0  0  0  0  0  0  0  0  0
    6.6471   -0.4357    0.0214 O   0  0  0  0  0  0  0  0  0  0  0  0
    0.5861    1.8509    0.6332 O   0  0  0  0  0  0  0  0  0  0  0  0
   -1.5171    3.2153   -1.1238 O   0  5  0  0  0  0  0  0  0  0  0  0
   -1.1280    1.6398   -2.6023 O   0  0  0  0  0  0  0  0  0  0  0  0
    1.0789   -0.3923    0.1522 N   0  0  0  0  0  0  0  0  0  0  0  0
   -1.5378    2.0133   -1.4782 N   0  3  0  0  0  0  0  0  0  0  0  0
   -1.2032    0.3945    0.3349 C   0  0  0  0  0  0  0  0  0  0  0  0
   -3.9236   -0.2202    0.2738 C   0  0  0  0  0  0  0  0  0  0  0  0
   -2.0437    1.0388   -0.5730 C   0  0  0  0  0  0  0  0  0  0  0  0
    2.4950   -0.4035    0.1211 C   0  0  0  0  0  0  0  0  0  0  0  0
   -3.4038    0.7315   -0.6034 C   0  0  0  0  0  0  0  0  0  0  0  0
   -5.3345   -0.5396    0.2429 C   0  0  0  0  0  0  0  0  0  0  0  0
   -1.7230   -0.5572    1.2123 C   0  0  0  0  0  0  0  0  0  0  0  0
   -3.0832   -0.8645    1.1817 C   0  0  0  0  0  0  0  0  0  0  0  0
    0.2235    0.6891    0.3966 C   0  0  0  0  0  0  0  0  0  0  0  0
    3.2077    0.7728    0.3535 C   0  0  0  0  0  0  0  0  0  0  0  0
    3.1770   -1.5910   -0.1444 C   0  0  0  0  0  0  0  0  0  0  0  0
    4.5714   -1.6023   -0.1774 C   0  0  0  0  0  0  0  0  0  0  0  0
    4.6022    0.7616    0.3207 C   0  0  0  0  0  0  0  0  0  0  0  0
    5.2839   -0.4260    0.0552 C   0  0  0  0  0  0  0  0  0  0  0  0
   -5.8000   -1.5605   -0.5857 C   0  0  0  0  0  0  0  0  0  0  0  0
   -6.2288    0.1732    1.0413 C   0  0  0  0  0  0  0  0  0  0  0  0
   -7.1602   -1.8687   -0.6159 C   0  0  0  0  0  0  0  0  0  0  0  0
   -7.5889   -0.1348    1.0112 C   0  0  0  0  0  0  0  0  0  0  0  0
   -8.0545   -1.1559    0.1827 C   0  0  0  0  0  0  0  0  0  0  0  0
    5.5096   -3.0617   -1.8037 C   0  0  0  0  0  0  0  0  0  0  0  0
    4.5136    3.0866    0.8125 C   0  0  0  0  0  0  0  0  0  0  0  0
    7.3223   -0.7017    1.2487 C   0  0  0  0  0  0  0  0  0  0  0  0
   -4.0584    1.2354   -1.3127 H   0  0  0  0  0  0  0  0  0  0  0  0
   -1.0838   -1.0650    1.9303 H   0  0  0  0  0  0  0  0  0  0  0  0
   -3.4724   -1.6080    1.8734 H   0  0  0  0  0  0  0  0  0  0  0  0
    0.6430   -1.2923   -0.0389 H   0  0  0  0  0  0  0  0  0  0  0  0
    2.6849    1.6884    0.5580 H   0  0  0  0  0  0  0  0  0  0  0  0
    2.6270   -2.5116   -0.3260 H   0  0  0  0  0  0  0  0  0  0  0  0
   -5.1164   -2.1260   -1.2146 H   0  0  0  0  0  0  0  0  0  0  0  0
   -5.8826    0.9721    1.6928 H   0  0  0  0  0  0  0  0  0  0  0  0
   -7.5229   -2.6636   -1.2610 H   0  0  0  0  0  0  0  0  0  0  0  0
   -8.2854    0.4201    1.6329 H   0  0  0  0  0  0  0  0  0  0  0  0
   -9.1135   -1.3957    0.1593 H   0  0  0  0  0  0  0  0  0  0  0  0
    4.5818   -3.1489   -2.3780 H   0  0  0  0  0  0  0  0  0  0  0  0
    6.1499   -2.2879   -2.2388 H   0  0  0  0  0  0  0  0  0  0  0  0
    6.0385   -4.0177   -1.8463 H   0  0  0  0  0  0  0  0  0  0  0  0
    3.8948    3.3666   -0.0469 H   0  0  0  0  0  0  0  0  0  0  0  0
    3.9343    2.9904    1.7374 H   0  0  0  0  0  0  0  0  0  0  0  0
    5.2208    3.9079    0.9701 H   0  0  0  0  0  0  0  0  0  0  0  0
    8.3990   -0.6744    1.0599 H   0  0  0  0  0  0  0  0  0  0  0  0
    7.0589   -1.6949    1.6260 H   0  0  0  0  0  0  0  0  0  0  0  0
    7.0790    0.0603    1.9957 H   0  0  0  0  0  0  0  0  0  0  0  0
  1 20  1  0  0  0  0
  1 28  1  0  0  0  0
  2 21  1  0  0  0  0
  2 29  1  0  0  0  0
  3 22  1  0  0  0  0
  3 30  1  0  0  0  0
  4 17  2  0  0  0  0
  5  8  1  0  0  0  0
  6  8  2  0  0  0  0
  7 12  1  0  0  0  0
  7 17  1  0  0  0  0
  7 34  1  0  0  0  0
  8 11  1  0  0  0  0
  9 11  2  0  0  0  0
  9 15  1  0  0  0  0
  9 17  1  0  0  0  0
 10 13  2  0  0  0  0
 10 14  1  0  0  0  0
 10 16  1  0  0  0  0
 11 13  1  0  0  0  0
 12 18  2  0  0  0  0
 12 19  1  0  0  0  0
 13 31  1  0  0  0  0
 14 23  2  0  0  0  0
 14 24  1  0  0  0  0
 15 16  2  0  0  0  0
 15 32  1  0  0  0  0
 16 33  1  0  0  0  0
 18 21  1  0  0  0  0
 18 35  1  0  0  0  0
 19 20  2  0  0  0  0
 19 36  1  0  0  0  0
 20 22  1  0  0  0  0
 21 22  2  0  0  0  0
 23 25  1  0  0  0  0
 23 37  1  0  0  0  0
 24 26  2  0  0  0  0
 24 38  1  0  0  0  0
 25 27  2  0  0  0  0
 25 39  1  0  0  0  0
 26 27  1  0  0  0  0
 26 40  1  0  0  0  0
 27 41  1  0  0  0  0
 28 42  1  0  0  0  0
 28 43  1  0  0  0  0
 28 44  1  0  0  0  0
 29 45  1  0  0  0  0
 29 46  1  0  0  0  0
 29 47  1  0  0  0  0
 30 48  1  0  0  0  0
 30 49  1  0  0  0  0
 30 50  1  0  0  0  0
M  CHG  2   5  -1   8   1
M  END
> <PUBCHEM_COMPOUND_CID>
56946615

> <PUBCHEM_CONFORMER_RMSD>
1

> <PUBCHEM_CONFORMER_DIVERSEORDER>
1
7
2
6
8
3
4
5
9

> <PUBCHEM_MMFF94_PARTIAL_CHARGES>
39
1 -0.36
11 0.13
12 0.12
13 -0.15
15 -0.15
16 -0.15
17 0.54
18 -0.15
19 -0.15
2 -0.36
20 0.08
21 0.08
22 0.08
23 -0.15
24 -0.15
25 -0.15
26 -0.15
27 -0.15
28 0.28
29 0.28
3 -0.36
30 0.28
31 0.15
32 0.15
33 0.15
34 0.37
35 0.15
36 0.15
37 0.15
38 0.15
39 0.15
4 -0.57
40 0.15
41 0.15
5 -0.52
6 -0.52
7 -0.55
8 0.91
9 0.09

> <PUBCHEM_EFFECTIVE_ROTOR_COUNT>
8

> <PUBCHEM_PHARMACOPHORE_FEATURES>
11
1 1 acceptor
1 2 acceptor
1 3 acceptor
1 4 acceptor
1 5 acceptor
1 5 anion
1 6 acceptor
1 7 donor
6 12 18 19 20 21 22 rings
6 14 23 24 25 26 27 rings
6 9 10 11 13 15 16 rings

> <PUBCHEM_HEAVY_ATOM_COUNT>
30

> <PUBCHEM_ATOM_DEF_STEREO_COUNT>
0

> <PUBCHEM_ATOM_UDEF_STEREO_COUNT>
0

> <PUBCHEM_BOND_DEF_STEREO_COUNT>
0

> <PUBCHEM_BOND_UDEF_STEREO_COUNT>
0

> <PUBCHEM_ISOTOPIC_ATOM_COUNT>
0

> <PUBCHEM_COMPONENT_COUNT>
1

> <PUBCHEM_CACTVS_TAUTO_COUNT>
2

> <PUBCHEM_CONFORMER_ID>
0364EFB700000001

> <PUBCHEM_MMFF94_ENERGY>
136.8826

> <PUBCHEM_FEATURE_SELFOVERLAP>
55.915

> <PUBCHEM_SHAPE_FINGERPRINT>
10299344 5 18059858385148354171
10411042 1 18127136265498315622
11524674 6 16200432490449487015
11991303 11 14851895789417653835
12236239 1 17632580478608253305
12516196 113 18131070437221534849
13383665 225 18041860457796976276
13533116 47 18202003243759757816
13540713 5 16662874844218549569
13617811 41 16877662361607850239
13673619 4 18408885131028407665
13782708 43 18335700498917219187
14347332 77 18042962082147227915
14556957 393 16009041527351083087
15131766 46 17342645988204491272
15183329 4 13479127987024665839
15198563 99 17458899350163906813
15352257 5 18413388748168041139
15849732 13 15482673493948209097
15961568 22 17313390084634645100
2026 5 18117273654407954626
21130935 74 18202004348083869531
21267235 1 18271811199038189682
21641784 216 16370721492319968357
23516275 137 17702409327991387063
23522609 53 18125190262375700145
23559900 14 17531534307332237957
23569943 247 18263081020911866299
24771750 20 17029396276660307613
255183 451 17987250941398264430
283562 15 17822569396534919473
3383291 50 17604155917361759595
34797466 226 17749113322152942428
4073 2 18264490761652031483
4325135 7 18343584061934194790
437815 12 18408325493180223201
46194498 28 18335420162977150500
5104073 3 18058162813975359682
54039377 194 17845660240488696486
5969126 39 18113893845646552237
59755656 215 17821446841896151235
59755656 520 10807931544830906937
9831232 110 18129671781090652390

> <PUBCHEM_SHAPE_MULTIPOLES>
572.21
22.05
2.75
1.33
11.4
0.45
0.59
-11.34
-3.62
-3.99
1.13
0.2
0.24
1.68

> <PUBCHEM_SHAPE_SELFOVERLAP>
1242.126

> <PUBCHEM_SHAPE_VOLUME>
313.3

> <PUBCHEM_COORDINATE_TYPE>
2
5
10

$$$$