56945419
  -OEChem-03242010103D

 41 43  0     0  0  0  0  0  0999 V2000
    6.0183   -1.0367   -1.3812 S   0  0  0  0  0  0  0  0  0  0  0  0
   -6.0343   -1.7850    0.5821 O   0  0  0  0  0  0  0  0  0  0  0  0
   -1.1043   -2.0592   -0.4579 O   0  0  0  0  0  0  0  0  0  0  0  0
   -4.7048    2.6015   -0.8076 O   0  0  0  0  0  0  0  0  0  0  0  0
   -6.6962    0.8259   -0.0622 O   0  0  0  0  0  0  0  0  0  0  0  0
    1.1038    3.1621   -0.5433 O   0  5  0  0  0  0  0  0  0  0  0  0
    1.0189    2.7439    1.6101 O   0  0  0  0  0  0  0  0  0  0  0  0
   -0.3691    0.1389   -0.0665 N   0  0  0  0  0  0  0  0  0  0  0  0
    1.2950    2.4038    0.4359 N   0  3  0  0  0  0  0  0  0  0  0  0
    1.0232    0.0112   -0.0395 C   0  0  0  0  0  0  0  0  0  0  0  0
    3.7953   -0.3001    0.0037 C   0  0  0  0  0  0  0  0  0  0  0  0
    1.8448    1.1113    0.2066 C   0  0  0  0  0  0  0  0  0  0  0  0
    3.2309    0.9555    0.2283 C   0  0  0  0  0  0  0  0  0  0  0  0
    1.5877   -1.2444   -0.2639 C   0  0  0  0  0  0  0  0  0  0  0  0
    2.9738   -1.4002   -0.2424 C   0  0  0  0  0  0  0  0  0  0  0  0
   -2.7375   -0.4210   -0.2120 C   0  0  0  0  0  0  0  0  0  0  0  0
    5.2287   -0.4622    0.0255 C   0  0  0  0  0  0  0  0  0  0  0  0
   -1.3206   -0.8672   -0.2670 C   0  0  0  0  0  0  0  0  0  0  0  0
   -3.7375   -1.3178    0.1639 C   0  0  0  0  0  0  0  0  0  0  0  0
   -3.0669    0.8948   -0.5375 C   0  0  0  0  0  0  0  0  0  0  0  0
   -5.0670   -0.8989    0.2144 C   0  0  0  0  0  0  0  0  0  0  0  0
   -4.3964    1.3137   -0.4870 C   0  0  0  0  0  0  0  0  0  0  0  0
   -5.3964    0.4169   -0.1110 C   0  0  0  0  0  0  0  0  0  0  0  0
    6.1144   -0.2162    1.0515 C   0  0  0  0  0  0  0  0  0  0  0  0
    7.4590   -0.5030    0.6778 C   0  0  0  0  0  0  0  0  0  0  0  0
    7.5498   -0.9573   -0.6195 C   0  0  0  0  0  0  0  0  0  0  0  0
   -5.6124   -3.1102    0.8985 C   0  0  0  0  0  0  0  0  0  0  0  0
    3.8693    1.8170    0.4176 H   0  0  0  0  0  0  0  0  0  0  0  0
    1.0300   -2.1468   -0.4656 H   0  0  0  0  0  0  0  0  0  0  0  0
    3.3909   -2.3904   -0.4111 H   0  0  0  0  0  0  0  0  0  0  0  0
   -0.7085    1.0725    0.1408 H   0  0  0  0  0  0  0  0  0  0  0  0
   -3.4291   -2.3269    0.4144 H   0  0  0  0  0  0  0  0  0  0  0  0
   -2.3179    1.6065   -0.8728 H   0  0  0  0  0  0  0  0  0  0  0  0
    5.8208    0.1508    2.0273 H   0  0  0  0  0  0  0  0  0  0  0  0
    8.3161   -0.3826    1.3274 H   0  0  0  0  0  0  0  0  0  0  0  0
    8.4423   -1.2465   -1.1563 H   0  0  0  0  0  0  0  0  0  0  0  0
   -3.8887    3.0769   -1.0393 H   0  0  0  0  0  0  0  0  0  0  0  0
   -6.7328    1.7637   -0.3191 H   0  0  0  0  0  0  0  0  0  0  0  0
   -5.1690   -3.6115    0.0313 H   0  0  0  0  0  0  0  0  0  0  0  0
   -4.9541   -3.1267    1.7738 H   0  0  0  0  0  0  0  0  0  0  0  0
   -6.5098   -3.6776    1.1670 H   0  0  0  0  0  0  0  0  0  0  0  0
  1 17  1  0  0  0  0
  1 26  1  0  0  0  0
  2 21  1  0  0  0  0
  2 27  1  0  0  0  0
  3 18  2  0  0  0  0
  4 22  1  0  0  0  0
  4 37  1  0  0  0  0
  5 23  1  0  0  0  0
  5 38  1  0  0  0  0
  6  9  1  0  0  0  0
  7  9  2  0  0  0  0
  8 10  1  0  0  0  0
  8 18  1  0  0  0  0
  8 31  1  0  0  0  0
  9 12  1  0  0  0  0
 10 12  2  0  0  0  0
 10 14  1  0  0  0  0
 11 13  2  0  0  0  0
 11 15  1  0  0  0  0
 11 17  1  0  0  0  0
 12 13  1  0  0  0  0
 13 28  1  0  0  0  0
 14 15  2  0  0  0  0
 14 29  1  0  0  0  0
 15 30  1  0  0  0  0
 16 18  1  0  0  0  0
 16 19  1  0  0  0  0
 16 20  2  0  0  0  0
 17 24  2  0  0  0  0
 19 21  2  0  0  0  0
 19 32  1  0  0  0  0
 20 22  1  0  0  0  0
 20 33  1  0  0  0  0
 21 23  1  0  0  0  0
 22 23  2  0  0  0  0
 24 25  1  0  0  0  0
 24 34  1  0  0  0  0
 25 26  2  0  0  0  0
 25 35  1  0  0  0  0
 26 36  1  0  0  0  0
 27 39  1  0  0  0  0
 27 40  1  0  0  0  0
 27 41  1  0  0  0  0
M  CHG  2   6  -1   9   1
M  END
> <PUBCHEM_COMPOUND_CID>
56945419

> <PUBCHEM_CONFORMER_RMSD>
0.8

> <PUBCHEM_CONFORMER_DIVERSEORDER>
2
38
34
10
15
23
31
11
13
21
24
33
18
25
4
9
5
19
17
12
30
20
26
16
6
37
22
14
1
35
7
36
27
8
28
32
3
29

> <PUBCHEM_MMFF94_PARTIAL_CHARGES>
38
1 -0.08
10 0.12
11 0.05
12 0.13
13 -0.15
14 -0.15
15 -0.15
16 0.09
17 -0.01
18 0.54
19 -0.15
2 -0.36
20 -0.15
21 0.08
22 0.08
23 0.08
24 -0.15
25 -0.15
26 -0.11
27 0.28
28 0.15
29 0.15
3 -0.57
30 0.15
31 0.37
32 0.15
33 0.15
34 0.15
35 0.15
36 0.15
37 0.45
38 0.45
4 -0.53
5 -0.53
6 -0.52
7 -0.52
8 -0.55
9 0.91

> <PUBCHEM_EFFECTIVE_ROTOR_COUNT>
6

> <PUBCHEM_PHARMACOPHORE_FEATURES>
11
1 2 acceptor
1 3 acceptor
1 4 donor
1 5 donor
1 6 acceptor
1 6 anion
1 7 acceptor
1 8 donor
5 1 17 24 25 26 rings
6 10 11 12 13 14 15 rings
6 16 19 20 21 22 23 rings

> <PUBCHEM_HEAVY_ATOM_COUNT>
27

> <PUBCHEM_ATOM_DEF_STEREO_COUNT>
0

> <PUBCHEM_ATOM_UDEF_STEREO_COUNT>
0

> <PUBCHEM_BOND_DEF_STEREO_COUNT>
0

> <PUBCHEM_BOND_UDEF_STEREO_COUNT>
0

> <PUBCHEM_ISOTOPIC_ATOM_COUNT>
0

> <PUBCHEM_COMPONENT_COUNT>
1

> <PUBCHEM_CACTVS_TAUTO_COUNT>
22

> <PUBCHEM_CONFORMER_ID>
0364EB0B00000002

> <PUBCHEM_MMFF94_ENERGY>
94.7507

> <PUBCHEM_FEATURE_SELFOVERLAP>
55.908

> <PUBCHEM_SHAPE_FINGERPRINT>
10 15 18341043108195876714
10299344 5 17530685403136292794
10319926 262 18336535097309993851
11315181 36 17676490562211695303
11421498 54 16009018437506795204
11545043 162 18261109712336391195
11646440 116 17988929985172698362
11963148 33 18335414665198387714
12166972 35 18187088386020419620
12236239 1 14996001025716316310
12516196 113 18201999924203594776
13402501 40 18412260614550656980
13533116 47 14979963528393451374
13673619 4 18260269685125735557
13685833 64 18413110580553207002
13782708 43 18334576892549403451
14294032 229 17900267408178366676
14341114 176 18339646740996965633
14856354 85 17168152242734409827
15131766 46 14331402408773226730
15183329 4 18333731295224509794
15849732 13 17846495933069125366
16087824 20 18267867169215663329
17844677 252 18335145323202483941
17980427 23 16558761108720841736
18393751 57 16328763385532924721
18608769 82 18336267924680269667
18927931 339 18334579070994608375
21033648 29 17774142561692000513
21267235 1 18413113870397850910
21315759 40 17095240324256947410
21521721 280 12685101375885986892
21792961 116 18263075536079528566
23081809 10 17167582679011030366
23522609 53 17386871438386517732
23559900 14 18408598180711757889
24771293 8 17986654069877561120
24771750 20 18050016777270834492
249057 3 18411980269967931695
3004659 81 18333454244813219892
3178227 256 18337965570396270283
335352 9 18413105065218918469
350125 39 18410014377262990861
3545911 37 18413106139340478735
4073 2 17968382333279422986
4214541 1 18409167723450443535
5104073 3 18411696629673810633
59755656 215 18342740664092330990
59755656 520 17240201049359018995
7495541 125 18261677068282692807
8863177 126 18190467257824239067

> <PUBCHEM_SHAPE_MULTIPOLES>
514.32
19.63
2.66
0.95
7.77
1.04
0.05
-7.14
0.39
-3.27
0.34
0.76
0.07
1.89

> <PUBCHEM_SHAPE_SELFOVERLAP>
1114.149

> <PUBCHEM_SHAPE_VOLUME>
283.1

> <PUBCHEM_COORDINATE_TYPE>
2
5
10

$$$$