11594901
  -OEChem-03242010103D

 44 46  0     0  0  0  0  0  0999 V2000
   -3.4169    3.1179    0.6835 O   0  0  0  0  0  0  0  0  0  0  0  0
   -5.6464   -0.8263   -0.8193 O   0  0  0  0  0  0  0  0  0  0  0  0
    6.3919    1.5083   -0.5850 O   0  0  0  0  0  0  0  0  0  0  0  0
   -0.9235   -1.0175    0.2601 C   0  0  0  0  0  0  0  0  0  0  0  0
    1.4906   -1.0847    0.1773 C   0  0  0  0  0  0  0  0  0  0  0  0
   -2.1610   -0.2764    0.1481 C   0  0  0  0  0  0  0  0  0  0  0  0
    0.2974   -0.3698    0.0708 C   0  0  0  0  0  0  0  0  0  0  0  0
    2.7572   -0.4145   -0.0195 C   0  0  0  0  0  0  0  0  0  0  0  0
   -0.9512   -2.3805    0.5558 C   0  0  0  0  0  0  0  0  0  0  0  0
    1.4623   -2.4478    0.4732 C   0  0  0  0  0  0  0  0  0  0  0  0
   -3.3214   -0.9168   -0.2865 C   0  0  0  0  0  0  0  0  0  0  0  0
   -2.1931    1.0794    0.4738 C   0  0  0  0  0  0  0  0  0  0  0  0
    0.2416   -3.0956    0.6624 C   0  0  0  0  0  0  0  0  0  0  0  0
   -3.3855    1.7950    0.3648 C   0  0  0  0  0  0  0  0  0  0  0  0
   -4.5139   -0.2014   -0.3954 C   0  0  0  0  0  0  0  0  0  0  0  0
    3.8955   -0.8642    0.6494 C   0  0  0  0  0  0  0  0  0  0  0  0
    2.8402    0.6814   -0.8786 C   0  0  0  0  0  0  0  0  0  0  0  0
   -4.5460    1.1545   -0.0697 C   0  0  0  0  0  0  0  0  0  0  0  0
    5.1169   -0.2179    0.4594 C   0  0  0  0  0  0  0  0  0  0  0  0
    4.0617    1.3276   -1.0687 C   0  0  0  0  0  0  0  0  0  0  0  0
    5.2001    0.8779   -0.3996 C   0  0  0  0  0  0  0  0  0  0  0  0
   -4.6690    3.7887    0.5491 C   0  0  0  0  0  0  0  0  0  0  0  0
   -5.5429   -2.2137   -1.1355 C   0  0  0  0  0  0  0  0  0  0  0  0
    7.5155    0.9964    0.1302 C   0  0  0  0  0  0  0  0  0  0  0  0
    0.3195    0.6906   -0.1605 H   0  0  0  0  0  0  0  0  0  0  0  0
   -1.8738   -2.9223    0.7448 H   0  0  0  0  0  0  0  0  0  0  0  0
    2.3629   -3.0522    0.5371 H   0  0  0  0  0  0  0  0  0  0  0  0
   -3.2638   -1.9597   -0.5738 H   0  0  0  0  0  0  0  0  0  0  0  0
   -1.3215    1.6092    0.8493 H   0  0  0  0  0  0  0  0  0  0  0  0
    0.2200   -4.1566    0.8938 H   0  0  0  0  0  0  0  0  0  0  0  0
    3.8719   -1.6934    1.3513 H   0  0  0  0  0  0  0  0  0  0  0  0
    1.9909    1.0472   -1.4487 H   0  0  0  0  0  0  0  0  0  0  0  0
   -5.5027    1.6555   -0.1749 H   0  0  0  0  0  0  0  0  0  0  0  0
    5.9599   -0.6144    1.0151 H   0  0  0  0  0  0  0  0  0  0  0  0
    4.1226    2.1760   -1.7449 H   0  0  0  0  0  0  0  0  0  0  0  0
   -5.0104    3.7994   -0.4916 H   0  0  0  0  0  0  0  0  0  0  0  0
   -4.5102    4.8312    0.8437 H   0  0  0  0  0  0  0  0  0  0  0  0
   -5.4218    3.3759    1.2292 H   0  0  0  0  0  0  0  0  0  0  0  0
   -5.2654   -2.8088   -0.2588 H   0  0  0  0  0  0  0  0  0  0  0  0
   -4.8738   -2.3843   -1.9859 H   0  0  0  0  0  0  0  0  0  0  0  0
   -6.5389   -2.5485   -1.4437 H   0  0  0  0  0  0  0  0  0  0  0  0
    7.7522   -0.0292   -0.1726 H   0  0  0  0  0  0  0  0  0  0  0  0
    7.3792    1.0887    1.2131 H   0  0  0  0  0  0  0  0  0  0  0  0
    8.3781    1.6156   -0.1371 H   0  0  0  0  0  0  0  0  0  0  0  0
  1 14  1  0  0  0  0
  1 22  1  0  0  0  0
  2 15  1  0  0  0  0
  2 23  1  0  0  0  0
  3 21  1  0  0  0  0
  3 24  1  0  0  0  0
  4  6  1  0  0  0  0
  4  7  1  0  0  0  0
  4  9  2  0  0  0  0
  5  7  2  0  0  0  0
  5  8  1  0  0  0  0
  5 10  1  0  0  0  0
  6 11  2  0  0  0  0
  6 12  1  0  0  0  0
  7 25  1  0  0  0  0
  8 16  2  0  0  0  0
  8 17  1  0  0  0  0
  9 13  1  0  0  0  0
  9 26  1  0  0  0  0
 10 13  2  0  0  0  0
 10 27  1  0  0  0  0
 11 15  1  0  0  0  0
 11 28  1  0  0  0  0
 12 14  2  0  0  0  0
 12 29  1  0  0  0  0
 13 30  1  0  0  0  0
 14 18  1  0  0  0  0
 15 18  2  0  0  0  0
 16 19  1  0  0  0  0
 16 31  1  0  0  0  0
 17 20  2  0  0  0  0
 17 32  1  0  0  0  0
 18 33  1  0  0  0  0
 19 21  2  0  0  0  0
 19 34  1  0  0  0  0
 20 21  1  0  0  0  0
 20 35  1  0  0  0  0
 22 36  1  0  0  0  0
 22 37  1  0  0  0  0
 22 38  1  0  0  0  0
 23 39  1  0  0  0  0
 23 40  1  0  0  0  0
 23 41  1  0  0  0  0
 24 42  1  0  0  0  0
 24 43  1  0  0  0  0
 24 44  1  0  0  0  0
M  END
> <PUBCHEM_COMPOUND_CID>
11594901

> <PUBCHEM_CONFORMER_RMSD>
0.8

> <PUBCHEM_CONFORMER_DIVERSEORDER>
4
3
1
2

> <PUBCHEM_MMFF94_PARTIAL_CHARGES>
31
1 -0.36
10 -0.15
11 -0.15
12 -0.15
13 -0.15
14 0.08
15 0.08
16 -0.15
17 -0.15
18 -0.15
19 -0.15
2 -0.36
20 -0.15
21 0.08
22 0.28
23 0.28
24 0.28
25 0.15
26 0.15
27 0.15
28 0.15
29 0.15
3 -0.36
30 0.15
31 0.15
32 0.15
33 0.15
34 0.15
35 0.15
7 -0.15
9 -0.15

> <PUBCHEM_EFFECTIVE_ROTOR_COUNT>
5

> <PUBCHEM_PHARMACOPHORE_FEATURES>
6
1 1 acceptor
1 2 acceptor
1 3 acceptor
6 4 5 7 9 10 13 rings
6 6 11 12 14 15 18 rings
6 8 16 17 19 20 21 rings

> <PUBCHEM_HEAVY_ATOM_COUNT>
24

> <PUBCHEM_ATOM_DEF_STEREO_COUNT>
0

> <PUBCHEM_ATOM_UDEF_STEREO_COUNT>
0

> <PUBCHEM_BOND_DEF_STEREO_COUNT>
0

> <PUBCHEM_BOND_UDEF_STEREO_COUNT>
0

> <PUBCHEM_ISOTOPIC_ATOM_COUNT>
0

> <PUBCHEM_COMPONENT_COUNT>
1

> <PUBCHEM_CACTVS_TAUTO_COUNT>
1

> <PUBCHEM_CONFORMER_ID>
00B0EC9500000004

> <PUBCHEM_MMFF94_ENERGY>
110.8665

> <PUBCHEM_FEATURE_SELFOVERLAP>
30.448

> <PUBCHEM_SHAPE_FINGERPRINT>
10411042 1 17761497293347684379
10595046 47 18411133623806828771
10670039 82 18410853265811785000
11089746 13 18336545014822074460
11315621 246 17632004377486428663
12107183 9 17832701275271670210
12236239 1 18409725158122823766
12390115 104 18341909449642610496
12403260 363 18408317795886470650
12633257 1 15502671424440283432
12788726 201 18411690003199116667
13540713 5 18194671589179472979
13583140 156 16660648491679527835
13631057 29 18272082834255745071
13785724 45 17686613542737136234
14251764 18 18187078473805229090
14251764 75 17982743969694598073
14739800 52 18268130102880997664
14767858 380 18338225081342784943
14790565 3 18335989696714704404
15183329 4 18187083949835913934
15461852 350 18059579156919308366
1577012 14 18408603639288111024
17780758 139 11025794305906275199
1813 80 12751248046272318235
19377110 9 18408606933781319699
19427546 20 18411978058223571045
21033648 144 17822289059202367831
21033648 29 15647331884273601983
21033650 10 18128282054501602172
21049683 271 18262512737072260183
21315763 191 9583517629184618976
22950370 63 9943802292275794810
235170 7 16486979453256920820
23559900 14 18269269247928838824
23569917 315 18333169475107340866
245318 6 17605296140430756724
283562 15 18409729573982349907
2838139 119 18412825807068006188
335352 9 18260267478398989878
34797466 226 17346322652118431748
397830 11 12468934151539155044
4258327 124 16661784343231713550
4325135 7 18411979195878286143
44802255 64 17417536934107951100
46194498 28 17203330078352392368
474 4 18187367575815883899
5104073 3 18041284261868241890
5486654 2 18340200882326416967
59755656 520 18188201108915246758
6058803 2 18123457290585137331
6328613 192 18114472275142305708
633830 44 18338798884029684047
636775 72 18268989955577042000
6371009 1 18261669363301891820
67856867 119 18264199223419181594
7808743 9 18409730660097080624
7970288 3 9583227319603469024
9981440 41 18334020483836351939

> <PUBCHEM_SHAPE_MULTIPOLES>
476.3
15.69
3.35
0.91
13.54
1.07
-0.11
8.33
-2.76
-4.43
0.75
-0.13
-0.04
-2.3

> <PUBCHEM_SHAPE_SELFOVERLAP>
1041.108

> <PUBCHEM_SHAPE_VOLUME>
261.5

> <PUBCHEM_COORDINATE_TYPE>
2
5
10

$$$$