11630507
  -OEChem-03242010103D

 35 37  0     0  0  0  0  0  0999 V2000
    5.4124   -2.3762    0.2292 O   0  0  0  0  0  0  0  0  0  0  0  0
    5.4137    2.3751   -0.2282 O   0  0  0  0  0  0  0  0  0  0  0  0
   -7.1941   -0.0010    0.0023 O   0  0  0  0  0  0  0  0  0  0  0  0
    1.1930    0.0005   -0.0003 C   0  0  0  0  0  0  0  0  0  0  0  0
   -1.5967    0.0007   -0.0007 C   0  0  0  0  0  0  0  0  0  0  0  0
    2.6398    0.0002   -0.0001 C   0  0  0  0  0  0  0  0  0  0  0  0
   -3.0436    0.0005   -0.0010 C   0  0  0  0  0  0  0  0  0  0  0  0
    0.4956    1.0998    0.5005 C   0  0  0  0  0  0  0  0  0  0  0  0
    0.4957   -1.0986   -0.5013 C   0  0  0  0  0  0  0  0  0  0  0  0
   -0.8993    1.0999    0.5004 C   0  0  0  0  0  0  0  0  0  0  0  0
   -0.8992   -1.0986   -0.5015 C   0  0  0  0  0  0  0  0  0  0  0  0
    3.3376    1.2024   -0.1156 C   0  0  0  0  0  0  0  0  0  0  0  0
    3.3371   -1.2024    0.1158 C   0  0  0  0  0  0  0  0  0  0  0  0
   -3.7412    1.2026   -0.1169 C   0  0  0  0  0  0  0  0  0  0  0  0
   -3.7404   -1.2022    0.1157 C   0  0  0  0  0  0  0  0  0  0  0  0
    4.7320   -1.2028    0.1161 C   0  0  0  0  0  0  0  0  0  0  0  0
    4.7325    1.2021   -0.1154 C   0  0  0  0  0  0  0  0  0  0  0  0
    5.4296   -0.0006    0.0004 C   0  0  0  0  0  0  0  0  0  0  0  0
   -5.1361    1.2020   -0.1161 C   0  0  0  0  0  0  0  0  0  0  0  0
   -5.1353   -1.2027    0.1163 C   0  0  0  0  0  0  0  0  0  0  0  0
   -5.8331   -0.0005    0.0004 C   0  0  0  0  0  0  0  0  0  0  0  0
    0.9957    1.9612    0.9349 H   0  0  0  0  0  0  0  0  0  0  0  0
    0.9955   -1.9600   -0.9361 H   0  0  0  0  0  0  0  0  0  0  0  0
   -1.3997    1.9614    0.9343 H   0  0  0  0  0  0  0  0  0  0  0  0
   -1.3995   -1.9599   -0.9358 H   0  0  0  0  0  0  0  0  0  0  0  0
    2.8323    2.1570   -0.2379 H   0  0  0  0  0  0  0  0  0  0  0  0
    2.8241   -2.1529    0.2389 H   0  0  0  0  0  0  0  0  0  0  0  0
   -3.2420    2.1597   -0.2406 H   0  0  0  0  0  0  0  0  0  0  0  0
   -3.2404   -2.1590    0.2393 H   0  0  0  0  0  0  0  0  0  0  0  0
    6.5168   -0.0080    0.0013 H   0  0  0  0  0  0  0  0  0  0  0  0
   -5.6748    2.1408   -0.2132 H   0  0  0  0  0  0  0  0  0  0  0  0
   -5.6671   -2.1453    0.2148 H   0  0  0  0  0  0  0  0  0  0  0  0
    4.7747   -3.1073    0.2971 H   0  0  0  0  0  0  0  0  0  0  0  0
    6.3681    2.1885   -0.2101 H   0  0  0  0  0  0  0  0  0  0  0  0
   -7.5088   -0.9172    0.0908 H   0  0  0  0  0  0  0  0  0  0  0  0
  1 16  1  0  0  0  0
  1 33  1  0  0  0  0
  2 17  1  0  0  0  0
  2 34  1  0  0  0  0
  3 21  1  0  0  0  0
  3 35  1  0  0  0  0
  4  6  1  0  0  0  0
  4  8  2  0  0  0  0
  4  9  1  0  0  0  0
  5  7  1  0  0  0  0
  5 10  2  0  0  0  0
  5 11  1  0  0  0  0
  6 12  2  0  0  0  0
  6 13  1  0  0  0  0
  7 14  2  0  0  0  0
  7 15  1  0  0  0  0
  8 10  1  0  0  0  0
  8 22  1  0  0  0  0
  9 11  2  0  0  0  0
  9 23  1  0  0  0  0
 10 24  1  0  0  0  0
 11 25  1  0  0  0  0
 12 17  1  0  0  0  0
 12 26  1  0  0  0  0
 13 16  2  0  0  0  0
 13 27  1  0  0  0  0
 14 19  1  0  0  0  0
 14 28  1  0  0  0  0
 15 20  2  0  0  0  0
 15 29  1  0  0  0  0
 16 18  1  0  0  0  0
 17 18  2  0  0  0  0
 18 30  1  0  0  0  0
 19 21  2  0  0  0  0
 19 31  1  0  0  0  0
 20 21  1  0  0  0  0
 20 32  1  0  0  0  0
M  END
> <PUBCHEM_COMPOUND_CID>
11630507

> <PUBCHEM_CONFORMER_RMSD>
0.6

> <PUBCHEM_CONFORMER_DIVERSEORDER>
1

> <PUBCHEM_MMFF94_PARTIAL_CHARGES>
31
1 -0.53
10 -0.15
11 -0.15
12 -0.15
13 -0.15
14 -0.15
15 -0.15
16 0.08
17 0.08
18 -0.15
19 -0.15
2 -0.53
20 -0.15
21 0.08
22 0.15
23 0.15
24 0.15
25 0.15
26 0.15
27 0.15
28 0.15
29 0.15
3 -0.53
30 0.15
31 0.15
32 0.15
33 0.45
34 0.45
35 0.45
8 -0.15
9 -0.15

> <PUBCHEM_EFFECTIVE_ROTOR_COUNT>
2

> <PUBCHEM_PHARMACOPHORE_FEATURES>
6
1 1 donor
1 2 donor
1 3 donor
6 4 5 8 9 10 11 rings
6 6 12 13 16 17 18 rings
6 7 14 15 19 20 21 rings

> <PUBCHEM_HEAVY_ATOM_COUNT>
21

> <PUBCHEM_ATOM_DEF_STEREO_COUNT>
0

> <PUBCHEM_ATOM_UDEF_STEREO_COUNT>
0

> <PUBCHEM_BOND_DEF_STEREO_COUNT>
0

> <PUBCHEM_BOND_UDEF_STEREO_COUNT>
0

> <PUBCHEM_ISOTOPIC_ATOM_COUNT>
0

> <PUBCHEM_COMPONENT_COUNT>
1

> <PUBCHEM_CACTVS_TAUTO_COUNT>
10

> <PUBCHEM_CONFORMER_ID>
00B177AB00000001

> <PUBCHEM_MMFF94_ENERGY>
73.138

> <PUBCHEM_FEATURE_SELFOVERLAP>
30.448

> <PUBCHEM_SHAPE_FINGERPRINT>
10411042 1 18121217581536939234
10595046 47 18410856589789158069
10906281 52 18059032634851816491
11287383 113 18334576858210263816
11524674 6 16343703262169282407
11719270 70 18059852831518692767
12107183 9 17689716355052404315
12166972 35 18335143085187445460
12236239 1 18411419509614309889
12516196 113 17989484130179548537
12616971 3 18060128838853790422
12788726 201 17489317368888808864
13073987 5 18411983554837496801
13167372 99 18342461387479499249
13167823 11 18409164402776423354
13533116 47 18334575707776570906
13760787 5 18342448249000058366
13785724 45 17836931092805531230
13862211 1 18202278096160856175
14251732 16 18335985375861007955
14341114 176 18334299773033014465
14461889 52 18190459548895311666
14528608 73 18411984693362350884
14933364 13 18408325488373591765
15183329 4 18411984641490355953
15196674 1 18411699885058293760
15788980 27 18113904857578325019
17834072 33 18411418418750742934
17844677 252 18336552629050296260
18335252 98 18261400004264009507
19427546 62 18189338043119735698
19489759 90 17530965774453828449
200 152 18202281390305547313
20281389 69 18261110755924201917
20645477 70 18411139100454516758
21130935 74 18341897394281795155
21236236 1 18271526395393948177
21267235 1 18341618071320667046
21792934 111 18200581527922692888
220451 1 18131635616368652887
23081809 10 18059853969900660461
23402539 116 18131062740872294319
23522609 53 17986417614126042369
23536379 177 18407759222789632193
23559900 14 18335980951691356409
23569914 2 17540761361732328677
239999 70 18412829054253478518
29717793 49 17988929946734075452
300161 21 18113893879689395699
3004659 81 18408605838612066370
34797466 226 17846789532596516380
3545911 37 18409730686193912236
397830 11 16662069116885887897
4072396 5 17704351044118709150
4073 2 17968100879766862938
4214541 1 18410011005581885521
42788 4 18410011031187931629
4325135 7 18409731785167625972
4340502 62 17385721413363276634
4463277 17 18412263947825138577
465052 167 18342460326886269206
5104073 3 18411983554810779346
5283173 99 18262796259757262741
542803 24 18407759244016516205
59755656 215 18339084782912594782
7495541 125 17917425458014866232
9971528 1 17748829618156738132

> <PUBCHEM_SHAPE_MULTIPOLES>
414.56
16.11
1.82
0.66
6.62
0
0
0
0.01
-2.04
0
0
0
-0.25

> <PUBCHEM_SHAPE_SELFOVERLAP>
924.281

> <PUBCHEM_SHAPE_VOLUME>
221.7

> <PUBCHEM_COORDINATE_TYPE>
2
5
10

$$$$