11514345
  -OEChem-03242010103D

 31 33  0     0  0  0  0  0  0999 V2000
    6.0481    0.0949   -0.0042 O   0  0  0  0  0  0  0  0  0  0  0  0
   -4.1833   -2.6010    0.4809 O   0  0  0  0  0  0  0  0  0  0  0  0
   -4.8298    2.0004   -0.6121 O   0  0  0  0  0  0  0  0  0  0  0  0
   -0.3365    0.3239    0.1000 C   0  0  0  0  0  0  0  0  0  0  0  0
    1.9278   -0.5234   -0.1706 C   0  0  0  0  0  0  0  0  0  0  0  0
    2.4388    0.7398    0.2116 C   0  0  0  0  0  0  0  0  0  0  0  0
    0.5375   -0.7151   -0.2214 C   0  0  0  0  0  0  0  0  0  0  0  0
   -1.7664    0.1104    0.0424 C   0  0  0  0  0  0  0  0  0  0  0  0
    0.1659    1.5661    0.4754 C   0  0  0  0  0  0  0  0  0  0  0  0
    1.5444    1.7743    0.5312 C   0  0  0  0  0  0  0  0  0  0  0  0
    2.8224   -1.5577   -0.4905 C   0  0  0  0  0  0  0  0  0  0  0  0
    3.8291    0.9316    0.2625 C   0  0  0  0  0  0  0  0  0  0  0  0
   -2.6190    1.1714   -0.2614 C   0  0  0  0  0  0  0  0  0  0  0  0
   -2.2920   -1.1573    0.2921 C   0  0  0  0  0  0  0  0  0  0  0  0
    4.7034   -0.1072   -0.0585 C   0  0  0  0  0  0  0  0  0  0  0  0
    4.2009   -1.3494   -0.4342 C   0  0  0  0  0  0  0  0  0  0  0  0
   -3.6705   -1.3639    0.2381 C   0  0  0  0  0  0  0  0  0  0  0  0
   -3.9975    0.9650   -0.3156 C   0  0  0  0  0  0  0  0  0  0  0  0
   -4.5233   -0.3027   -0.0658 C   0  0  0  0  0  0  0  0  0  0  0  0
    0.1692   -1.6849   -0.5504 H   0  0  0  0  0  0  0  0  0  0  0  0
   -0.4748    2.3948    0.7643 H   0  0  0  0  0  0  0  0  0  0  0  0
    1.9153    2.7514    0.8338 H   0  0  0  0  0  0  0  0  0  0  0  0
    2.4529   -2.5372   -0.7868 H   0  0  0  0  0  0  0  0  0  0  0  0
    4.2311    1.9001    0.5552 H   0  0  0  0  0  0  0  0  0  0  0  0
   -2.2475    2.1667   -0.4918 H   0  0  0  0  0  0  0  0  0  0  0  0
   -1.6588   -1.9981    0.5640 H   0  0  0  0  0  0  0  0  0  0  0  0
    4.8771   -2.1622   -0.6853 H   0  0  0  0  0  0  0  0  0  0  0  0
   -5.5967   -0.4706   -0.1065 H   0  0  0  0  0  0  0  0  0  0  0  0
    6.2191    1.0111    0.2739 H   0  0  0  0  0  0  0  0  0  0  0  0
   -3.4536   -3.2151    0.6713 H   0  0  0  0  0  0  0  0  0  0  0  0
   -5.7476    1.6787   -0.6062 H   0  0  0  0  0  0  0  0  0  0  0  0
  1 15  1  0  0  0  0
  1 29  1  0  0  0  0
  2 17  1  0  0  0  0
  2 30  1  0  0  0  0
  3 18  1  0  0  0  0
  3 31  1  0  0  0  0
  4  7  2  0  0  0  0
  4  8  1  0  0  0  0
  4  9  1  0  0  0  0
  5  6  2  0  0  0  0
  5  7  1  0  0  0  0
  5 11  1  0  0  0  0
  6 10  1  0  0  0  0
  6 12  1  0  0  0  0
  7 20  1  0  0  0  0
  8 13  2  0  0  0  0
  8 14  1  0  0  0  0
  9 10  2  0  0  0  0
  9 21  1  0  0  0  0
 10 22  1  0  0  0  0
 11 16  2  0  0  0  0
 11 23  1  0  0  0  0
 12 15  2  0  0  0  0
 12 24  1  0  0  0  0
 13 18  1  0  0  0  0
 13 25  1  0  0  0  0
 14 17  2  0  0  0  0
 14 26  1  0  0  0  0
 15 16  1  0  0  0  0
 16 27  1  0  0  0  0
 17 19  1  0  0  0  0
 18 19  2  0  0  0  0
 19 28  1  0  0  0  0
M  END
> <PUBCHEM_COMPOUND_CID>
11514345

> <PUBCHEM_CONFORMER_RMSD>
0.6

> <PUBCHEM_CONFORMER_DIVERSEORDER>
1
2

> <PUBCHEM_MMFF94_PARTIAL_CHARGES>
27
1 -0.53
10 -0.15
11 -0.15
12 -0.15
13 -0.15
14 -0.15
15 0.08
16 -0.15
17 0.08
18 0.08
19 -0.15
2 -0.53
20 0.15
21 0.15
22 0.15
23 0.15
24 0.15
25 0.15
26 0.15
27 0.15
28 0.15
29 0.45
3 -0.53
30 0.45
31 0.45
7 -0.15
9 -0.15

> <PUBCHEM_EFFECTIVE_ROTOR_COUNT>
1

> <PUBCHEM_PHARMACOPHORE_FEATURES>
6
1 1 donor
1 2 donor
1 3 donor
6 4 5 6 7 9 10 rings
6 5 6 11 12 15 16 rings
6 8 13 14 17 18 19 rings

> <PUBCHEM_HEAVY_ATOM_COUNT>
19

> <PUBCHEM_ATOM_DEF_STEREO_COUNT>
0

> <PUBCHEM_ATOM_UDEF_STEREO_COUNT>
0

> <PUBCHEM_BOND_DEF_STEREO_COUNT>
0

> <PUBCHEM_BOND_UDEF_STEREO_COUNT>
0

> <PUBCHEM_ISOTOPIC_ATOM_COUNT>
0

> <PUBCHEM_COMPONENT_COUNT>
1

> <PUBCHEM_CACTVS_TAUTO_COUNT>
25

> <PUBCHEM_CONFORMER_ID>
00AFB1E900000001

> <PUBCHEM_MMFF94_ENERGY>
61.8154

> <PUBCHEM_FEATURE_SELFOVERLAP>
30.474

> <PUBCHEM_SHAPE_FINGERPRINT>
10366900 7 14908175344046308646
10608611 8 18411414051233531929
10835480 77 18341041973934808704
11405975 8 18410575072057901697
11471102 20 18272086076660453036
11796584 16 18334854970602569994
12032990 46 18341617027063073056
12236239 1 16950281793508468848
12403259 415 18343298210285764928
13675066 3 18273208737739980896
13760787 19 18040994016467955482
14252887 29 17346608460869832662
14386348 63 18413672400460542598
14866123 147 17191516607052415011
15196674 1 18411701001760346722
15375358 24 18342457015054832390
15788980 27 17967817149689364440
15961568 22 17532372152900617892
17844677 252 18336272322283649509
18186145 218 18040146310277741709
19141452 34 18341899623527687155
200 152 17632291268289921197
20645477 56 18261391114446708053
20645477 70 17988641848485557254
20681677 155 18114181896064984681
21033648 29 17346020212904949696
21065198 57 18411136943937569073
21065201 7 18259977189152173857
21267235 1 18340777017127479078
21279426 13 18267304218454029511
21421861 104 17606391052079538522
21709351 56 18336260223518746972
221490 88 18338802337182850705
2215653 11 18271801285779125149
23402539 116 16877942732904410436
23402655 69 18271523113368540268
23557571 272 18260547814180848877
23559900 14 18339641136191407202
26918003 58 18342454824858693360
2871803 45 18340489959363040798
3004659 81 18188492359664517866
335352 9 18339923697657642133
34934 24 18339918225626707070
3545911 37 18411700972033374169
4073 2 18186806902400974946
4214541 1 18409730660107636237
4921388 177 16805897276665757003
5104073 3 18413106169062352832
5283173 99 18335979753406562748
542803 24 16950287290897789844
633830 44 16950289506863654501
77779 3 18409731772161170645
8809292 202 18408045121683020995
9709674 26 18263927811856540547

> <PUBCHEM_SHAPE_MULTIPOLES>
373.4
11.37
2.01
0.7
2.2
0.28
0
1.3
0.8
-1.45
-0.11
-0.09
-0.02
1.12

> <PUBCHEM_SHAPE_SELFOVERLAP>
839.052

> <PUBCHEM_SHAPE_VOLUME>
198.3

> <PUBCHEM_COORDINATE_TYPE>
2
5
10

$$$$