11161166
  -OEChem-03242010103D

 35 36  0     0  0  0  0  0  0999 V2000
    3.2587   -2.5976   -0.1022 O   0  0  0  0  0  0  0  0  0  0  0  0
    4.2135    2.0770    0.0463 O   0  0  0  0  0  0  0  0  0  0  0  0
   -3.3325   -2.2993    0.2748 O   0  0  0  0  0  0  0  0  0  0  0  0
    1.0398    0.2866    0.0971 C   0  0  0  0  0  0  0  0  0  0  0  0
    1.9454    1.3348    0.1044 C   0  0  0  0  0  0  0  0  0  0  0  0
    1.4623   -1.0311    0.0284 C   0  0  0  0  0  0  0  0  0  0  0  0
   -0.4030    0.5793    0.1628 C   0  0  0  0  0  0  0  0  0  0  0  0
    2.8280   -1.3080   -0.0348 C   0  0  0  0  0  0  0  0  0  0  0  0
    3.3112    1.0579    0.0413 C   0  0  0  0  0  0  0  0  0  0  0  0
   -2.8138    0.0119   -0.1302 C   0  0  0  0  0  0  0  0  0  0  0  0
    3.7523   -0.2635   -0.0284 C   0  0  0  0  0  0  0  0  0  0  0  0
   -1.3870   -0.2696   -0.2127 C   0  0  0  0  0  0  0  0  0  0  0  0
   -3.7354   -1.0071    0.1100 C   0  0  0  0  0  0  0  0  0  0  0  0
   -3.2534    1.3254   -0.2952 C   0  0  0  0  0  0  0  0  0  0  0  0
   -5.0968   -0.7126    0.1850 C   0  0  0  0  0  0  0  0  0  0  0  0
   -4.6149    1.6198   -0.2202 C   0  0  0  0  0  0  0  0  0  0  0  0
   -5.5366    0.6008    0.0200 C   0  0  0  0  0  0  0  0  0  0  0  0
    4.6683   -2.8087   -0.1645 C   0  0  0  0  0  0  0  0  0  0  0  0
    3.6939    3.4039    0.1180 C   0  0  0  0  0  0  0  0  0  0  0  0
    1.5503    2.3440    0.1573 H   0  0  0  0  0  0  0  0  0  0  0  0
    0.7758   -1.8720    0.0441 H   0  0  0  0  0  0  0  0  0  0  0  0
   -0.6507    1.5556    0.5733 H   0  0  0  0  0  0  0  0  0  0  0  0
    4.8259   -0.4138   -0.0755 H   0  0  0  0  0  0  0  0  0  0  0  0
   -1.1472   -1.2451   -0.6260 H   0  0  0  0  0  0  0  0  0  0  0  0
   -2.5687    2.1434   -0.5036 H   0  0  0  0  0  0  0  0  0  0  0  0
   -5.8267   -1.4961    0.3711 H   0  0  0  0  0  0  0  0  0  0  0  0
   -4.9582    2.6415   -0.3533 H   0  0  0  0  0  0  0  0  0  0  0  0
   -6.5966    0.8300    0.0771 H   0  0  0  0  0  0  0  0  0  0  0  0
    5.1694   -2.4513    0.7416 H   0  0  0  0  0  0  0  0  0  0  0  0
    5.0999   -2.3793   -1.0750 H   0  0  0  0  0  0  0  0  0  0  0  0
    4.8310   -3.8905   -0.2137 H   0  0  0  0  0  0  0  0  0  0  0  0
    4.5500    4.0865    0.1122 H   0  0  0  0  0  0  0  0  0  0  0  0
    3.1557    3.5756    1.0564 H   0  0  0  0  0  0  0  0  0  0  0  0
    3.0866    3.6466   -0.7607 H   0  0  0  0  0  0  0  0  0  0  0  0
   -4.1125   -2.8590    0.4308 H   0  0  0  0  0  0  0  0  0  0  0  0
  1  8  1  0  0  0  0
  1 18  1  0  0  0  0
  2  9  1  0  0  0  0
  2 19  1  0  0  0  0
  3 13  1  0  0  0  0
  3 35  1  0  0  0  0
  4  5  2  0  0  0  0
  4  6  1  0  0  0  0
  4  7  1  0  0  0  0
  5  9  1  0  0  0  0
  5 20  1  0  0  0  0
  6  8  2  0  0  0  0
  6 21  1  0  0  0  0
  7 12  2  0  0  0  0
  7 22  1  0  0  0  0
  8 11  1  0  0  0  0
  9 11  2  0  0  0  0
 10 12  1  0  0  0  0
 10 13  1  0  0  0  0
 10 14  2  0  0  0  0
 11 23  1  0  0  0  0
 12 24  1  0  0  0  0
 13 15  2  0  0  0  0
 14 16  1  0  0  0  0
 14 25  1  0  0  0  0
 15 17  1  0  0  0  0
 15 26  1  0  0  0  0
 16 17  2  0  0  0  0
 16 27  1  0  0  0  0
 17 28  1  0  0  0  0
 18 29  1  0  0  0  0
 18 30  1  0  0  0  0
 18 31  1  0  0  0  0
 19 32  1  0  0  0  0
 19 33  1  0  0  0  0
 19 34  1  0  0  0  0
M  END
> <PUBCHEM_COMPOUND_CID>
11161166

> <PUBCHEM_CONFORMER_RMSD>
0.6

> <PUBCHEM_CONFORMER_DIVERSEORDER>
7
11
5
17
9
6
15
8
3
12
10
16
1
13
14
2
4

> <PUBCHEM_MMFF94_PARTIAL_CHARGES>
29
1 -0.36
10 0.03
11 -0.15
12 -0.18
13 0.08
14 -0.15
15 -0.15
16 -0.15
17 -0.15
18 0.28
19 0.28
2 -0.36
20 0.15
21 0.15
22 0.15
23 0.15
24 0.15
25 0.15
26 0.15
27 0.15
28 0.15
3 -0.53
35 0.45
4 0.03
5 -0.15
6 -0.15
7 -0.18
8 0.08
9 0.08

> <PUBCHEM_EFFECTIVE_ROTOR_COUNT>
4

> <PUBCHEM_PHARMACOPHORE_FEATURES>
5
1 1 acceptor
1 2 acceptor
1 3 donor
6 10 13 14 15 16 17 rings
6 4 5 6 8 9 11 rings

> <PUBCHEM_HEAVY_ATOM_COUNT>
19

> <PUBCHEM_ATOM_DEF_STEREO_COUNT>
0

> <PUBCHEM_ATOM_UDEF_STEREO_COUNT>
0

> <PUBCHEM_BOND_DEF_STEREO_COUNT>
1

> <PUBCHEM_BOND_UDEF_STEREO_COUNT>
0

> <PUBCHEM_ISOTOPIC_ATOM_COUNT>
0

> <PUBCHEM_COMPONENT_COUNT>
1

> <PUBCHEM_CACTVS_TAUTO_COUNT>
3

> <PUBCHEM_CONFORMER_ID>
00AA4E4E00000007

> <PUBCHEM_MMFF94_ENERGY>
75.3832

> <PUBCHEM_FEATURE_SELFOVERLAP>
25.371

> <PUBCHEM_SHAPE_FINGERPRINT>
10411042 1 18123189001284554214
10595046 47 18342455993416968877
10616163 171 18267586986554045351
10912923 1 17846501443939362169
11405975 8 18410857625023859371
12107183 9 17981613658702679505
12507560 40 18408886235367356541
12730499 353 18337401546895709800
12788726 201 17274553039980245393
13009979 54 17630900300450412688
13073987 5 18342179968869873137
13167823 11 18411416198627411655
13533116 47 18343299271596023203
13955234 65 18412543232574101240
14341114 176 18409174307376968897
14790565 3 17832991924794819116
14866123 147 17045707041599140146
15042514 8 17546442281299732490
15196674 1 18410573985679244647
15250474 111 18201142352041837247
15961568 22 17531248421751708788
17492 89 18410013268903569731
17834072 33 18413387657266862445
17844677 252 18411707547728713033
1813 80 16660646254360321445
18186145 218 17749384836894712999
20286276 3 18410018753428827763
20645477 56 18259983782338689437
20645477 70 18341613685489203446
20832881 197 18044095657434896330
21065198 57 18410292493300852431
21065199 12 18335985345875358195
21267235 1 18339651035674384047
21452121 103 18410847781375710760
21618674 54 18338795723086273463
21859007 373 17533474769609926365
221490 88 18408892840805810522
23557571 272 17458057157872872069
23559900 14 18411978027399040682
239999 70 18272940427386691486
245318 6 16738061974466735788
3004659 81 18261676961325728910
312423 11 17987813920493192912
314173 41 18267587901503502598
335352 9 18266458702839776135
3421961 26 18339921516151865578
3545911 37 18409168831072302341
4073 2 18114468949792925274
4214541 1 18337953394469440533
474 4 17749955590777759844
5104073 3 18408042905595837513
5281201 14 18335139765145642037
543358 83 18341055137950938096
59755656 215 18410296921939980356
633830 44 18334286553108125975
67856867 119 18412819209829311360
77188 2 18195526988056533420
77779 3 18410293610150604897
8272917 22 18412829092601709404
90127 26 18114187402265981065
9709674 26 18334861657697818787
9841814 1 18115296783860335978
9971528 1 17967817141062727940

> <PUBCHEM_SHAPE_MULTIPOLES>
373.4
12.51
3
0.62
7.91
0.36
0
-0.3
0.07
-4.73
-0.02
0.06
0.01
0.56

> <PUBCHEM_SHAPE_SELFOVERLAP>
797.652

> <PUBCHEM_SHAPE_VOLUME>
208.4

> <PUBCHEM_COORDINATE_TYPE>
2
5
10

$$$$