118708518
  -OEChem-03242010103D

 39 41  0     0  0  0  0  0  0999 V2000
    0.6045    2.5333   -0.0391 F   0  0  0  0  0  0  0  0  0  0  0  0
   -7.3047    0.7049   -0.0763 O   0  0  0  0  0  0  0  0  0  0  0  0
   -1.6204   -2.0171   -0.0283 O   0  0  0  0  0  0  0  0  0  0  0  0
   -0.9564    0.2380   -0.0740 N   0  0  0  0  0  0  0  0  0  0  0  0
    6.7770    0.9026    0.6875 N   0  0  0  0  0  0  0  0  0  0  0  0
    3.2219    0.0106   -0.0032 C   0  0  0  0  0  0  0  0  0  0  0  0
    0.4366    0.1638   -0.0504 C   0  0  0  0  0  0  0  0  0  0  0  0
    4.6661   -0.0688    0.0202 C   0  0  0  0  0  0  0  0  0  0  0  0
    2.5917    1.2551   -0.0098 C   0  0  0  0  0  0  0  0  0  0  0  0
    2.4594   -1.1573   -0.0201 C   0  0  0  0  0  0  0  0  0  0  0  0
    1.1992    1.3317   -0.0336 C   0  0  0  0  0  0  0  0  0  0  0  0
    1.0667   -1.0807   -0.0436 C   0  0  0  0  0  0  0  0  0  0  0  0
   -3.3081   -0.4165   -0.0652 C   0  0  0  0  0  0  0  0  0  0  0  0
   -1.8770   -0.8183   -0.0621 C   0  0  0  0  0  0  0  0  0  0  0  0
   -4.2702   -1.2585    0.4923 C   0  0  0  0  0  0  0  0  0  0  0  0
   -3.6890    0.8024   -0.6263 C   0  0  0  0  0  0  0  0  0  0  0  0
    5.3349   -1.1362   -0.5686 C   0  0  0  0  0  0  0  0  0  0  0  0
    5.4263    0.9159    0.6301 C   0  0  0  0  0  0  0  0  0  0  0  0
   -5.9941    0.3373   -0.0725 C   0  0  0  0  0  0  0  0  0  0  0  0
   -5.6132   -0.8816    0.4888 C   0  0  0  0  0  0  0  0  0  0  0  0
   -5.0320    1.1793   -0.6300 C   0  0  0  0  0  0  0  0  0  0  0  0
    6.7240   -1.1854   -0.5301 C   0  0  0  0  0  0  0  0  0  0  0  0
    7.3922   -0.1506    0.1042 C   0  0  0  0  0  0  0  0  0  0  0  0
   -8.2354   -0.2040    0.5102 C   0  0  0  0  0  0  0  0  0  0  0  0
    3.1458    2.1896   -0.0231 H   0  0  0  0  0  0  0  0  0  0  0  0
    2.9083   -2.1464    0.0109 H   0  0  0  0  0  0  0  0  0  0  0  0
    0.5476   -2.0285   -0.0545 H   0  0  0  0  0  0  0  0  0  0  0  0
   -1.3137    1.1888   -0.0462 H   0  0  0  0  0  0  0  0  0  0  0  0
   -3.9931   -2.2099    0.9390 H   0  0  0  0  0  0  0  0  0  0  0  0
   -2.9814    1.4725   -1.1051 H   0  0  0  0  0  0  0  0  0  0  0  0
    4.8157   -1.9351   -1.0905 H   0  0  0  0  0  0  0  0  0  0  0  0
    4.9890    1.7696    1.1383 H   0  0  0  0  0  0  0  0  0  0  0  0
   -6.3078   -1.5823    0.9394 H   0  0  0  0  0  0  0  0  0  0  0  0
   -5.3243    2.1262   -1.0759 H   0  0  0  0  0  0  0  0  0  0  0  0
    7.2672   -2.0042   -0.9879 H   0  0  0  0  0  0  0  0  0  0  0  0
    8.4758   -0.1410    0.1600 H   0  0  0  0  0  0  0  0  0  0  0  0
   -9.2288    0.2476    0.4198 H   0  0  0  0  0  0  0  0  0  0  0  0
   -8.0433   -0.3422    1.5797 H   0  0  0  0  0  0  0  0  0  0  0  0
   -8.2659   -1.1548   -0.0325 H   0  0  0  0  0  0  0  0  0  0  0  0
  1 11  1  0  0  0  0
  2 19  1  0  0  0  0
  2 24  1  0  0  0  0
  3 14  2  0  0  0  0
  4  7  1  0  0  0  0
  4 14  1  0  0  0  0
  4 28  1  0  0  0  0
  5 18  1  0  0  0  0
  5 23  2  0  0  0  0
  6  8  1  0  0  0  0
  6  9  2  0  0  0  0
  6 10  1  0  0  0  0
  7 11  2  0  0  0  0
  7 12  1  0  0  0  0
  8 17  1  0  0  0  0
  8 18  2  0  0  0  0
  9 11  1  0  0  0  0
  9 25  1  0  0  0  0
 10 12  2  0  0  0  0
 10 26  1  0  0  0  0
 12 27  1  0  0  0  0
 13 14  1  0  0  0  0
 13 15  2  0  0  0  0
 13 16  1  0  0  0  0
 15 20  1  0  0  0  0
 15 29  1  0  0  0  0
 16 21  2  0  0  0  0
 16 30  1  0  0  0  0
 17 22  2  0  0  0  0
 17 31  1  0  0  0  0
 18 32  1  0  0  0  0
 19 20  2  0  0  0  0
 19 21  1  0  0  0  0
 20 33  1  0  0  0  0
 21 34  1  0  0  0  0
 22 23  1  0  0  0  0
 22 35  1  0  0  0  0
 23 36  1  0  0  0  0
 24 37  1  0  0  0  0
 24 38  1  0  0  0  0
 24 39  1  0  0  0  0
M  END
> <PUBCHEM_COMPOUND_CID>
118708518

> <PUBCHEM_CONFORMER_RMSD>
0.8

> <PUBCHEM_CONFORMER_DIVERSEORDER>
2
3
6
9
8
1
4
5
10
7

> <PUBCHEM_MMFF94_PARTIAL_CHARGES>
34
1 -0.19
10 -0.15
11 0.19
12 -0.15
13 0.09
14 0.54
15 -0.15
16 -0.15
17 -0.15
18 0.16
19 0.08
2 -0.36
20 -0.15
21 -0.15
22 -0.15
23 0.16
24 0.28
25 0.15
26 0.15
27 0.15
28 0.37
29 0.15
3 -0.57
30 0.15
31 0.15
32 0.15
33 0.15
34 0.15
35 0.15
36 0.15
4 -0.55
5 -0.62
7 0.12
9 -0.15

> <PUBCHEM_EFFECTIVE_ROTOR_COUNT>
5

> <PUBCHEM_PHARMACOPHORE_FEATURES>
7
1 2 acceptor
1 3 acceptor
1 4 donor
1 5 acceptor
6 13 15 16 19 20 21 rings
6 5 8 17 18 22 23 rings
6 6 7 9 10 11 12 rings

> <PUBCHEM_HEAVY_ATOM_COUNT>
24

> <PUBCHEM_ATOM_DEF_STEREO_COUNT>
0

> <PUBCHEM_ATOM_UDEF_STEREO_COUNT>
0

> <PUBCHEM_BOND_DEF_STEREO_COUNT>
0

> <PUBCHEM_BOND_UDEF_STEREO_COUNT>
0

> <PUBCHEM_ISOTOPIC_ATOM_COUNT>
0

> <PUBCHEM_COMPONENT_COUNT>
1

> <PUBCHEM_CACTVS_TAUTO_COUNT>
5

> <PUBCHEM_CONFORMER_ID>
0713592600000002

> <PUBCHEM_MMFF94_ENERGY>
88.4576

> <PUBCHEM_FEATURE_SELFOVERLAP>
35.522

> <PUBCHEM_SHAPE_FINGERPRINT>
10 15 18261107513181513736
10050765 1 18120658199466457751
10299344 5 15647053767707855987
11315181 36 18060140951399880857
11646440 116 18343588447095927961
11719270 70 18413669093774178822
12107698 1 15357697487349157663
12166972 35 18131349739129942889
12236239 1 17632856438435531615
12516196 113 18343581841499484256
12838862 33 18339061748886194361
13073987 5 18261389980221563217
13402501 40 18409729555926371543
13533116 47 15554455050881303958
13685833 64 18410014333965047778
13885169 127 18410575068264132921
14170010 4 18413388748099183584
14251764 18 18040150713046605043
14251764 46 18131914857856867962
14856354 85 16081094783456151851
14933364 13 18410293609696924258
15131766 46 14690566695047833696
15183329 4 18335139765150663403
15419008 47 18409160008935910309
15461852 350 16630242597810676093
15849732 13 18343864424334852815
16120349 18 18131345349420099960
18006028 8 17989487411729754304
18608769 82 18334016129488586539
19141452 34 18059571438510058774
20281389 69 18333729108986189084
21033648 29 18058996411029265698
21095086 128 14562529578566531728
21236236 1 18201721695663718504
21267235 1 18410016524234994365
21279426 13 18266739078452298764
21315759 40 15502375625431038673
21792934 111 18342447133247779192
21792961 116 18114173086928798486
23035841 295 14996283630406432905
23536379 177 15936405628993586916
23559900 14 18272080651684410857
24771293 8 18126830815739949816
3004659 81 18113621192653726660
335352 9 18410856581141052223
34797466 226 16559036000050724512
3545911 37 18408885131597587111
4073 2 17968663833930972434
4325135 7 11240000057691947777
4340502 62 16515681139833744626
4463277 17 18410011044352440876
59755656 215 18409732820803610798
59755656 520 16805321124141422235
8209 1 18411700984617478783

> <PUBCHEM_SHAPE_MULTIPOLES>
464.93
22.2
1.61
0.73
7.28
0.23
0
-0.62
-1.67
-0.3
0.04
-0.04
0.01
1.13

> <PUBCHEM_SHAPE_SELFOVERLAP>
1020.073

> <PUBCHEM_SHAPE_VOLUME>
251.3

> <PUBCHEM_COORDINATE_TYPE>
2
5
10

$$$$