93
 OpenBabel03292021543D

152160  0  0  1  0  0  0  0  0999 V2000
    3.0869    6.4701    6.8254 C   0  0  0  0  0  0  0  0  0  0  0  0
    4.0880    5.7205    6.3421 C   0  0  0  0  0  0  0  0  0  0  0  0
    4.7328    4.5729    7.0884 C   0  0  1  0  0  0  0  0  0  0  0  0
    4.4895    3.2189    6.3751 C   0  0  0  0  0  0  0  0  0  0  0  0
    5.7420    2.4605    6.1270 N   0  0  3  0  0  0  0  0  0  0  0  0
    6.4109    2.2279    7.4313 C   0  0  0  0  0  0  0  0  0  0  0  0
    6.7219    3.5503    8.1504 C   0  0  0  0  0  0  0  0  0  0  0  0
    6.2610    4.7316    7.2745 C   0  0  1  0  0  0  0  0  0  0  0  0
    6.9629    4.6180    5.9031 C   0  0  0  0  0  0  0  0  0  0  0  0
    6.6859    3.2332    5.2516 C   0  0  1  0  0  0  0  0  0  0  0  0
    6.3331    3.3418    3.6991 C   0  0  2  0  0  0  0  0  0  0  0  0
    7.2920    4.2711    3.1229 O   0  0  0  0  0  0  0  0  0  0  0  0
    6.8653    4.9987    2.0612 C   0  0  0  0  0  0  0  0  0  0  0  0
    5.9070    4.7131    1.3663 O   0  0  0  0  0  0  0  0  0  0  0  0
    7.6724    6.2739    1.8646 C   0  0  0  0  0  0  0  0  0  0  0  0
    7.2180    7.4518    2.7367 C   0  0  0  0  0  0  0  0  0  0  0  0
    5.7366    7.8109    2.5812 C   0  0  0  0  0  0  0  0  0  0  0  0
    5.3251    9.0034    3.4588 C   0  0  0  0  0  0  0  0  0  0  0  0
    3.8212    9.2542    3.3392 C   0  0  0  0  0  0  0  0  0  0  0  0
    3.3262   10.3997    4.2261 C   0  0  0  0  0  0  0  0  0  0  0  0
    1.8149   10.5479    4.0596 C   0  0  0  0  0  0  0  0  0  0  0  0
    1.2212   11.6690    4.9107 C   0  0  0  0  0  0  0  0  0  0  0  0
   -0.2519   11.7015    4.7411 C   0  0  0  0  0  0  0  0  0  0  0  0
   -1.2257   11.0257    5.4411 C   0  0  0  0  0  0  0  0  0  0  0  0
   -2.3766   11.3580    4.7938 N   0  0  0  0  0  0  0  0  0  0  0  0
   -3.7278   10.9772    5.1415 C   0  0  0  0  0  0  0  0  0  0  0  0
   -4.3297   11.8758    6.2219 C   0  0  0  0  0  0  0  0  0  0  0  0
   -4.4572   13.3217    5.7493 C   0  0  0  0  0  0  0  0  0  0  0  0
   -5.0705   14.2293    6.8105 C   0  0  0  0  0  0  0  0  0  0  0  0
   -5.1248   15.6538    6.2701 C   0  0  0  0  0  0  0  0  0  0  0  0
   -5.7034   16.6426    7.2776 C   0  0  0  0  0  0  0  0  0  0  0  0
   -5.6730   18.0410    6.6705 C   0  0  0  0  0  0  0  0  0  0  0  0
   -6.3802   19.0895    7.5029 C   0  0  0  0  0  0  0  0  0  0  0  0
   -5.8214   19.4016    8.8692 C   0  0  0  0  0  0  0  0  0  0  0  0
   -6.3149   18.9980    9.9111 O   0  0  0  0  0  0  0  0  0  0  0  0
   -4.8021   20.2983    8.7916 O   0  0  0  0  0  0  0  0  0  0  0  0
   -4.8793   21.4850    9.6341 C   0  0  2  0  0  0  0  0  0  0  0  0
   -4.6209   21.2452   11.1248 C   0  0  0  0  0  0  0  0  0  0  0  0
   -5.6828   21.2985   12.0379 C   0  0  0  0  0  0  0  0  0  0  0  0
   -5.4177   21.2054   13.3933 C   0  0  0  0  0  0  0  0  0  0  0  0
   -4.1914   21.0486   13.9133 N   0  0  0  0  0  0  0  0  0  0  0  0
   -3.1657   20.9581   13.0601 C   0  0  0  0  0  0  0  0  0  0  0  0
   -1.9067   20.7756   13.6241 C   0  0  0  0  0  0  0  0  0  0  0  0
   -0.7620   20.6400   12.8369 C   0  0  0  0  0  0  0  0  0  0  0  0
   -0.8620   20.6915   11.4628 C   0  0  0  0  0  0  0  0  0  0  0  0
    0.1743   20.5545   10.5810 O   0  0  0  0  0  0  0  0  0  0  0  0
    1.4374   20.1996   11.1353 C   0  0  0  0  0  0  0  0  0  0  0  0
   -2.1233   20.8988   10.8711 C   0  0  0  0  0  0  0  0  0  0  0  0
   -3.3051   21.0289   11.6540 C   0  0  0  0  0  0  0  0  0  0  0  0
   -6.1353   22.3911    9.2117 C   0  0  2  0  0  0  0  0  0  0  0  0
   -6.2145   22.5843    7.6634 C   0  0  0  0  0  0  0  0  0  0  0  0
   -5.8757   24.0397    7.2781 C   0  0  2  0  0  0  0  0  0  0  0  0
   -4.6084   24.4313    8.0592 C   0  0  0  0  0  0  0  0  0  0  0  0
   -4.9621   24.4954    9.5614 C   0  0  0  0  0  0  0  0  0  0  0  0
   -6.2181   23.7516    9.8438 N   0  0  3  0  0  0  0  0  0  0  0  0
   -7.3522   24.5135    9.2182 C   0  0  0  0  0  0  0  0  0  0  0  0
   -6.9833   24.9873    7.7848 C   0  0  2  0  0  0  0  0  0  0  0  0
   -8.1322   25.1223    6.8258 C   0  0  0  0  0  0  0  0  0  0  0  0
   -8.3700   26.2483    6.1348 C   0  0  0  0  0  0  0  0  0  0  0  0
   -2.1392   12.1723    3.7520 N   0  0  0  0  0  0  0  0  0  0  0  0
   -0.8341   12.4042    3.7196 N   0  0  0  0  0  0  0  0  0  0  0  0
    6.2298    1.9294    3.0713 C   0  0  0  0  0  0  0  0  0  0  0  0
    5.0107    1.2610    3.2924 C   0  0  0  0  0  0  0  0  0  0  0  0
    4.9159   -0.0967    3.0545 C   0  0  0  0  0  0  0  0  0  0  0  0
    5.9447   -0.8502    2.6419 N   0  0  0  0  0  0  0  0  0  0  0  0
    7.0972   -0.2312    2.3617 C   0  0  0  0  0  0  0  0  0  0  0  0
    8.1555   -1.0265    1.9544 C   0  0  0  0  0  0  0  0  0  0  0  0
    9.3869   -0.4958    1.5729 C   0  0  0  0  0  0  0  0  0  0  0  0
    9.5444    0.8840    1.5521 C   0  0  0  0  0  0  0  0  0  0  0  0
   10.6514    1.5535    1.1167 O   0  0  0  0  0  0  0  0  0  0  0  0
   11.8821    0.8427    1.1530 C   0  0  0  0  0  0  0  0  0  0  0  0
    8.4982    1.7027    1.9889 C   0  0  0  0  0  0  0  0  0  0  0  0
    7.2840    1.1775    2.4818 C   0  0  0  0  0  0  0  0  0  0  0  0
    2.6563    7.2669    6.2261 H   0  0  0  0  0  0  0  0  0  0  0  0
    2.6666    6.3054    7.8125 H   0  0  0  0  0  0  0  0  0  0  0  0
    4.4424    5.9337    5.3370 H   0  0  0  0  0  0  0  0  0  0  0  0
    4.2798    4.5176    8.0897 H   0  0  0  0  0  0  0  0  0  0  0  0
    3.9368    3.3494    5.4390 H   0  0  0  0  0  0  0  0  0  0  0  0
    3.8313    2.6046    7.0059 H   0  0  0  0  0  0  0  0  0  0  0  0
    7.3369    1.6577    7.2829 H   0  0  0  0  0  0  0  0  0  0  0  0
    5.7810    1.5924    8.0669 H   0  0  0  0  0  0  0  0  0  0  0  0
    7.7946    3.6252    8.3621 H   0  0  0  0  0  0  0  0  0  0  0  0
    6.2017    3.5755    9.1169 H   0  0  0  0  0  0  0  0  0  0  0  0
    6.5065    5.6837    7.7581 H   0  0  0  0  0  0  0  0  0  0  0  0
    8.0446    4.7398    6.0406 H   0  0  0  0  0  0  0  0  0  0  0  0
    6.6325    5.4363    5.2578 H   0  0  0  0  0  0  0  0  0  0  0  0
    7.6432    2.6894    5.2690 H   0  0  0  0  0  0  0  0  0  0  0  0
    5.3469    3.8174    3.6205 H   0  0  0  0  0  0  0  0  0  0  0  0
    7.6029    6.5505    0.8061 H   0  0  0  0  0  0  0  0  0  0  0  0
    8.7306    6.0580    2.0492 H   0  0  0  0  0  0  0  0  0  0  0  0
    7.8196    8.3304    2.4651 H   0  0  0  0  0  0  0  0  0  0  0  0
    7.4333    7.2385    3.7889 H   0  0  0  0  0  0  0  0  0  0  0  0
    5.1212    6.9460    2.8535 H   0  0  0  0  0  0  0  0  0  0  0  0
    5.5224    8.0445    1.5311 H   0  0  0  0  0  0  0  0  0  0  0  0
    5.8752    9.9020    3.1547 H   0  0  0  0  0  0  0  0  0  0  0  0
    5.5811    8.8020    4.5058 H   0  0  0  0  0  0  0  0  0  0  0  0
    3.2817    8.3375    3.6085 H   0  0  0  0  0  0  0  0  0  0  0  0
    3.5722    9.4752    2.2937 H   0  0  0  0  0  0  0  0  0  0  0  0
    3.8268   11.3356    3.9519 H   0  0  0  0  0  0  0  0  0  0  0  0
    3.5649   10.1930    5.2761 H   0  0  0  0  0  0  0  0  0  0  0  0
    1.3300    9.5979    4.3220 H   0  0  0  0  0  0  0  0  0  0  0  0
    1.5798   10.7335    3.0031 H   0  0  0  0  0  0  0  0  0  0  0  0
    1.6499   12.6351    4.6194 H   0  0  0  0  0  0  0  0  0  0  0  0
    1.4673   11.5138    5.9680 H   0  0  0  0  0  0  0  0  0  0  0  0
   -1.1964   10.3588    6.2883 H   0  0  0  0  0  0  0  0  0  0  0  0
   -3.6904    9.9401    5.4927 H   0  0  0  0  0  0  0  0  0  0  0  0
   -4.3318   10.9959    4.2271 H   0  0  0  0  0  0  0  0  0  0  0  0
   -3.7102   11.8393    7.1264 H   0  0  0  0  0  0  0  0  0  0  0  0
   -5.3196   11.4907    6.4926 H   0  0  0  0  0  0  0  0  0  0  0  0
   -5.0643   13.3562    4.8361 H   0  0  0  0  0  0  0  0  0  0  0  0
   -3.4684   13.7194    5.4931 H   0  0  0  0  0  0  0  0  0  0  0  0
   -4.4637   14.2001    7.7233 H   0  0  0  0  0  0  0  0  0  0  0  0
   -6.0770   13.8821    7.0697 H   0  0  0  0  0  0  0  0  0  0  0  0
   -5.7294   15.6690    5.3538 H   0  0  0  0  0  0  0  0  0  0  0  0
   -4.1139   15.9745    5.9871 H   0  0  0  0  0  0  0  0  0  0  0  0
   -5.1189   16.6227    8.2039 H   0  0  0  0  0  0  0  0  0  0  0  0
   -6.7322   16.3574    7.5269 H   0  0  0  0  0  0  0  0  0  0  0  0
   -6.1790   18.0066    5.6951 H   0  0  0  0  0  0  0  0  0  0  0  0
   -4.6371   18.3405    6.4729 H   0  0  0  0  0  0  0  0  0  0  0  0
   -7.4360   18.8297    7.6357 H   0  0  0  0  0  0  0  0  0  0  0  0
   -6.3918   20.0145    6.9213 H   0  0  0  0  0  0  0  0  0  0  0  0
   -4.0107   22.0580    9.2996 H   0  0  0  0  0  0  0  0  0  0  0  0
   -6.7092   21.4328   11.7209 H   0  0  0  0  0  0  0  0  0  0  0  0
   -6.2216   21.2610   14.1237 H   0  0  0  0  0  0  0  0  0  0  0  0
   -1.8231   20.7286   14.7083 H   0  0  0  0  0  0  0  0  0  0  0  0
    0.1861   20.4959   13.3519 H   0  0  0  0  0  0  0  0  0  0  0  0
    2.1369   20.0458   10.3076 H   0  0  0  0  0  0  0  0  0  0  0  0
    1.3780   19.2610   11.6963 H   0  0  0  0  0  0  0  0  0  0  0  0
    1.8326   21.0081   11.7590 H   0  0  0  0  0  0  0  0  0  0  0  0
   -2.1702   20.9313    9.7894 H   0  0  0  0  0  0  0  0  0  0  0  0
   -7.0343   21.8318    9.5080 H   0  0  0  0  0  0  0  0  0  0  0  0
   -7.2242   22.3285    7.3149 H   0  0  0  0  0  0  0  0  0  0  0  0
   -5.5136   21.9300    7.1400 H   0  0  0  0  0  0  0  0  0  0  0  0
   -5.7164   24.1220    6.1975 H   0  0  0  0  0  0  0  0  0  0  0  0
   -4.2391   25.4057    7.7220 H   0  0  0  0  0  0  0  0  0  0  0  0
   -3.8111   23.7043    7.8684 H   0  0  0  0  0  0  0  0  0  0  0  0
   -5.0805   25.5403    9.8758 H   0  0  0  0  0  0  0  0  0  0  0  0
   -4.1358   24.1099   10.1675 H   0  0  0  0  0  0  0  0  0  0  0  0
   -7.5743   25.3920    9.8373 H   0  0  0  0  0  0  0  0  0  0  0  0
   -8.2663   23.9050    9.2267 H   0  0  0  0  0  0  0  0  0  0  0  0
   -6.5394   25.9899    7.8798 H   0  0  0  0  0  0  0  0  0  0  0  0
   -8.7763   24.2541    6.6533 H   0  0  0  0  0  0  0  0  0  0  0  0
   -7.7437   27.1258    6.2571 H   0  0  0  0  0  0  0  0  0  0  0  0
   -9.1867   26.3216    5.4248 H   0  0  0  0  0  0  0  0  0  0  0  0
    4.1527    1.7763    3.7080 H   0  0  0  0  0  0  0  0  0  0  0  0
    3.9910   -0.6323    3.2387 H   0  0  0  0  0  0  0  0  0  0  0  0
    8.0149   -2.1105    1.9364 H   0  0  0  0  0  0  0  0  0  0  0  0
   10.1756   -1.1750    1.2668 H   0  0  0  0  0  0  0  0  0  0  0  0
   12.6812    1.5862    1.2322 H   0  0  0  0  0  0  0  0  0  0  0  0
   12.0273    0.2823    0.2244 H   0  0  0  0  0  0  0  0  0  0  0  0
   11.9627    0.1848    2.0247 H   0  0  0  0  0  0  0  0  0  0  0  0
    8.6421    2.7733    1.9026 H   0  0  0  0  0  0  0  0  0  0  0  0
  1  2  2  0  0  0  0
  1 74  1  0  0  0  0
  1 75  1  0  0  0  0
  2 76  1  0  0  0  0
  3  4  1  0  0  0  0
  3  8  1  0  0  0  0
  3  2  1  0  0  0  0
  3 77  1  1  0  0  0
  4  5  1  0  0  0  0
  4 78  1  0  0  0  0
  4 79  1  0  0  0  0
  5  6  1  0  0  0  0
  5 10  1  0  0  0  0
  6  7  1  0  0  0  0
  6 80  1  0  0  0  0
  6 81  1  0  0  0  0
  7  8  1  0  0  0  0
  7 82  1  0  0  0  0
  7 83  1  0  0  0  0
  8  9  1  0  0  0  0
  8 84  1  1  0  0  0
  9 10  1  0  0  0  0
  9 85  1  0  0  0  0
  9 86  1  0  0  0  0
 10 11  1  0  0  0  0
 10 87  1  6  0  0  0
 11 62  1  0  0  0  0
 11 12  1  0  0  0  0
 11 88  1  1  0  0  0
 12 13  1  0  0  0  0
 13 14  2  0  0  0  0
 13 15  1  0  0  0  0
 15 16  1  0  0  0  0
 15 89  1  0  0  0  0
 15 90  1  0  0  0  0
 16 17  1  0  0  0  0
 16 91  1  0  0  0  0
 16 92  1  0  0  0  0
 17 18  1  0  0  0  0
 17 93  1  0  0  0  0
 17 94  1  0  0  0  0
 18 19  1  0  0  0  0
 18 95  1  0  0  0  0
 18 96  1  0  0  0  0
 19 20  1  0  0  0  0
 19 97  1  0  0  0  0
 19 98  1  0  0  0  0
 20 21  1  0  0  0  0
 20 99  1  0  0  0  0
 20100  1  0  0  0  0
 21 22  1  0  0  0  0
 21101  1  0  0  0  0
 21102  1  0  0  0  0
 22 23  1  0  0  0  0
 22103  1  0  0  0  0
 22104  1  0  0  0  0
 23 24  2  0  0  0  0
 23 61  1  0  0  0  0
 24 25  1  0  0  0  0
 24105  1  0  0  0  0
 25 26  1  0  0  0  0
 25 60  1  0  0  0  0
 26 27  1  0  0  0  0
 26106  1  0  0  0  0
 26107  1  0  0  0  0
 27 28  1  0  0  0  0
 27108  1  0  0  0  0
 27109  1  0  0  0  0
 28 29  1  0  0  0  0
 28110  1  0  0  0  0
 28111  1  0  0  0  0
 29 30  1  0  0  0  0
 29112  1  0  0  0  0
 29113  1  0  0  0  0
 30 31  1  0  0  0  0
 30114  1  0  0  0  0
 30115  1  0  0  0  0
 31 32  1  0  0  0  0
 31116  1  0  0  0  0
 31117  1  0  0  0  0
 32 33  1  0  0  0  0
 32118  1  0  0  0  0
 32119  1  0  0  0  0
 33 34  1  0  0  0  0
 33120  1  0  0  0  0
 33121  1  0  0  0  0
 34 35  2  0  0  0  0
 34 36  1  0  0  0  0
 37 50  1  0  0  0  0
 37 38  1  0  0  0  0
 37 36  1  0  0  0  0
 37122  1  6  0  0  0
 38 39  1  0  0  0  0
 38 49  2  0  0  0  0
 39 40  2  0  0  0  0
 39123  1  0  0  0  0
 40 41  1  0  0  0  0
 40124  1  0  0  0  0
 41 42  2  0  0  0  0
 42 43  1  0  0  0  0
 42 49  1  0  0  0  0
 43 44  2  0  0  0  0
 43125  1  0  0  0  0
 44 45  1  0  0  0  0
 44126  1  0  0  0  0
 45 46  1  0  0  0  0
 45 48  2  0  0  0  0
 46 47  1  0  0  0  0
 47127  1  0  0  0  0
 47128  1  0  0  0  0
 47129  1  0  0  0  0
 48 49  1  0  0  0  0
 48130  1  0  0  0  0
 50 51  1  0  0  0  0
 50 55  1  0  0  0  0
 50131  1  1  0  0  0
 51 52  1  0  0  0  0
 51132  1  0  0  0  0
 51133  1  0  0  0  0
 52 53  1  0  0  0  0
 52 57  1  0  0  0  0
 52134  1  6  0  0  0
 53 54  1  0  0  0  0
 53135  1  0  0  0  0
 53136  1  0  0  0  0
 54 55  1  0  0  0  0
 54137  1  0  0  0  0
 54138  1  0  0  0  0
 55 56  1  0  0  0  0
 56 57  1  0  0  0  0
 56139  1  0  0  0  0
 56140  1  0  0  0  0
 57 58  1  0  0  0  0
 57141  1  1  0  0  0
 58 59  2  0  0  0  0
 58142  1  0  0  0  0
 59143  1  0  0  0  0
 59144  1  0  0  0  0
 60 61  2  0  0  0  0
 62 63  1  0  0  0  0
 62 73  2  0  0  0  0
 63 64  2  0  0  0  0
 63145  1  0  0  0  0
 64 65  1  0  0  0  0
 64146  1  0  0  0  0
 65 66  2  0  0  0  0
 66 67  1  0  0  0  0
 66 73  1  0  0  0  0
 67 68  2  0  0  0  0
 67147  1  0  0  0  0
 68 69  1  0  0  0  0
 68148  1  0  0  0  0
 69 70  1  0  0  0  0
 69 72  2  0  0  0  0
 70 71  1  0  0  0  0
 71149  1  0  0  0  0
 71150  1  0  0  0  0
 71151  1  0  0  0  0
 72 73  1  0  0  0  0
 72152  1  0  0  0  0
M  END
>  <Energy>
236.94

$$$$