94
 OpenBabel03292021553D

110117  0  0  1  0  0  0  0  0999 V2000
    1.7618    4.3328  -26.8274 N   0  0  0  0  0  0  0  0  0  0  0  0
    1.0912    5.3845  -26.2491 C   0  0  0  0  0  0  0  0  0  0  0  0
    0.2029    5.1186  -25.2752 N   0  0  0  0  0  0  0  0  0  0  0  0
   -0.5256    6.1329  -24.7250 C   0  0  0  0  0  0  0  0  0  0  0  0
   -1.4779    5.8962  -23.7187 N   0  0  0  0  0  0  0  0  0  0  0  0
   -1.9389    4.5445  -23.4623 C   0  0  0  0  0  0  0  0  0  0  0  0
   -3.2587    4.3127  -22.7830 C   0  0  0  0  0  0  0  0  0  0  0  0
   -3.0829    3.9422  -24.2267 C   0  0  0  0  0  0  0  0  0  0  0  0
   -0.3078    7.4315  -25.2088 C   0  0  0  0  0  0  0  0  0  0  0  0
   -0.8835    8.6574  -24.9458 N   0  0  0  0  0  0  0  0  0  0  0  0
   -0.2809    9.4961  -25.7629 C   0  0  0  0  0  0  0  0  0  0  0  0
    0.6778    8.8737  -26.5138 N   0  0  0  0  0  0  0  0  0  0  0  0
    1.4436    9.3685  -27.6317 C   0  0  1  0  0  0  0  0  0  0  0  0
    0.8071   10.5172  -28.3099 C   0  0  0  0  0  0  0  0  0  0  0  0
    1.7355   11.3898  -28.7069 C   0  0  0  0  0  0  0  0  0  0  0  0
    3.1559   10.9362  -28.4361 C   0  0  1  0  0  0  0  0  0  0  0  0
    4.2649   11.9208  -27.9568 C   0  0  0  0  0  0  0  0  0  0  0  0
    4.8496   12.7719  -28.9808 O   0  0  0  0  0  0  0  0  0  0  0  0
    5.0724   14.0774  -28.5998 C   0  0  0  0  0  0  0  0  0  0  0  0
    4.7625   14.5279  -27.5037 O   0  0  0  0  0  0  0  0  0  0  0  0
    5.6876   14.9225  -29.7072 C   0  0  0  0  0  0  0  0  0  0  0  0
    6.8169   15.7887  -29.1829 C   0  0  0  0  0  0  0  0  0  0  0  0
    7.3339   16.7864  -30.2296 C   0  0  0  0  0  0  0  0  0  0  0  0
    6.4018   17.9519  -30.6079 C   0  0  0  0  0  0  0  0  0  0  0  0
    5.9132   18.7506  -29.4021 C   0  0  0  0  0  0  0  0  0  0  0  0
    5.0646   19.9570  -29.8048 C   0  0  0  0  0  0  0  0  0  0  0  0
    4.6040   20.7556  -28.5834 C   0  0  0  0  0  0  0  0  0  0  0  0
    3.7550   21.9765  -28.9358 C   0  0  0  0  0  0  0  0  0  0  0  0
    2.4483   21.6691  -29.6849 C   0  0  0  0  0  0  0  0  0  0  0  0
    1.4534   20.7973  -28.9180 C   0  0  0  0  0  0  0  0  0  0  0  0
    0.8775   21.5038  -27.7077 C   0  0  0  0  0  0  0  0  0  0  0  0
    0.9691   22.7033  -27.5020 O   0  0  0  0  0  0  0  0  0  0  0  0
    0.3013   20.6068  -26.8674 O   0  0  0  0  0  0  0  0  0  0  0  0
   -0.1853   21.1283  -25.6207 C   0  0  0  0  0  0  0  0  0  0  0  0
    0.8392   20.9969  -24.4788 C   0  0  2  0  0  0  0  0  0  0  0  0
    2.1891   21.5509  -24.8279 C   0  0  0  0  0  0  0  0  0  0  0  0
    3.0944   20.5979  -25.0255 C   0  0  0  0  0  0  0  0  0  0  0  0
    2.5443   19.2046  -24.7873 C   0  0  2  0  0  0  0  0  0  0  0  0
    2.5188   18.3647  -25.9710 N   0  0  0  0  0  0  0  0  0  0  0  0
    3.6237   17.9655  -26.6756 C   0  0  0  0  0  0  0  0  0  0  0  0
    3.3213   17.3128  -27.7754 N   0  0  0  0  0  0  0  0  0  0  0  0
    1.9414   17.1662  -27.7440 C   0  0  0  0  0  0  0  0  0  0  0  0
    0.9825   16.5767  -28.6253 C   0  0  0  0  0  0  0  0  0  0  0  0
    1.1404   15.9718  -29.8966 N   0  0  0  0  0  0  0  0  0  0  0  0
    2.3931   15.3492  -30.2315 C   0  0  0  0  0  0  0  0  0  0  0  0
    2.4653   13.8635  -30.3800 C   0  0  0  0  0  0  0  0  0  0  0  0
    2.8654   14.7528  -31.4900 C   0  0  0  0  0  0  0  0  0  0  0  0
   -0.3181   16.5860  -28.2469 N   0  0  0  0  0  0  0  0  0  0  0  0
   -0.6311   17.1807  -27.0674 C   0  0  0  0  0  0  0  0  0  0  0  0
   -1.9797   17.1416  -26.7407 N   0  0  0  0  0  0  0  0  0  0  0  0
    0.1954   17.7472  -26.1941 N   0  0  0  0  0  0  0  0  0  0  0  0
    1.4677   17.7416  -26.6008 C   0  0  0  0  0  0  0  0  0  0  0  0
    1.2127   19.5526  -24.0894 C   0  0  0  0  0  0  0  0  0  0  0  0
    2.8359    9.9291  -27.3004 C   0  0  0  0  0  0  0  0  0  0  0  0
    0.6687    7.5533  -26.1768 C   0  0  0  0  0  0  0  0  0  0  0  0
    1.4086    6.5942  -26.7240 N   0  0  0  0  0  0  0  0  0  0  0  0
    1.7988    3.5532  -26.1855 H   0  0  0  0  0  0  0  0  0  0  0  0
    2.6272    4.6452  -27.2312 H   0  0  0  0  0  0  0  0  0  0  0  0
   -2.0955    6.6978  -23.5968 H   0  0  0  0  0  0  0  0  0  0  0  0
   -1.1266    3.8732  -23.1926 H   0  0  0  0  0  0  0  0  0  0  0  0
   -3.8822    5.1688  -22.5557 H   0  0  0  0  0  0  0  0  0  0  0  0
   -3.3074    3.5178  -22.0489 H   0  0  0  0  0  0  0  0  0  0  0  0
   -3.5715    4.5497  -24.9782 H   0  0  0  0  0  0  0  0  0  0  0  0
   -3.0128    2.8913  -24.4808 H   0  0  0  0  0  0  0  0  0  0  0  0
   -0.5300   10.5480  -25.8705 H   0  0  0  0  0  0  0  0  0  0  0  0
    1.5294    8.5611  -28.3681 H   0  0  0  0  0  0  0  0  0  0  0  0
   -0.2518   10.6206  -28.5040 H   0  0  0  0  0  0  0  0  0  0  0  0
    1.3749   12.2294  -29.2593 H   0  0  0  0  0  0  0  0  0  0  0  0
    3.5152   10.4170  -29.3347 H   0  0  0  0  0  0  0  0  0  0  0  0
    3.8888   12.4986  -27.1083 H   0  0  0  0  0  0  0  0  0  0  0  0
    5.1093   11.3194  -27.6005 H   0  0  0  0  0  0  0  0  0  0  0  0
    4.9509   15.6084  -30.1108 H   0  0  0  0  0  0  0  0  0  0  0  0
    6.0109   14.2939  -30.5417 H   0  0  0  0  0  0  0  0  0  0  0  0
    7.6310   15.1261  -28.8744 H   0  0  0  0  0  0  0  0  0  0  0  0
    6.4980   16.3203  -28.2792 H   0  0  0  0  0  0  0  0  0  0  0  0
    7.5877   16.2422  -31.1473 H   0  0  0  0  0  0  0  0  0  0  0  0
    8.2676   17.2116  -29.8457 H   0  0  0  0  0  0  0  0  0  0  0  0
    5.5415   17.5826  -31.1796 H   0  0  0  0  0  0  0  0  0  0  0  0
    6.9507   18.6237  -31.2800 H   0  0  0  0  0  0  0  0  0  0  0  0
    6.7606   19.0700  -28.7868 H   0  0  0  0  0  0  0  0  0  0  0  0
    5.3035   18.0922  -28.7892 H   0  0  0  0  0  0  0  0  0  0  0  0
    4.1957   19.5983  -30.3671 H   0  0  0  0  0  0  0  0  0  0  0  0
    5.6402   20.6118  -30.4677 H   0  0  0  0  0  0  0  0  0  0  0  0
    5.4786   21.0844  -28.0084 H   0  0  0  0  0  0  0  0  0  0  0  0
    4.0302   20.1181  -27.9153 H   0  0  0  0  0  0  0  0  0  0  0  0
    4.3568   22.6590  -29.5464 H   0  0  0  0  0  0  0  0  0  0  0  0
    3.5303   22.5164  -28.0078 H   0  0  0  0  0  0  0  0  0  0  0  0
    2.6787   21.1824  -30.6390 H   0  0  0  0  0  0  0  0  0  0  0  0
    1.9684   22.6211  -29.9399 H   0  0  0  0  0  0  0  0  0  0  0  0
    1.9338   19.8669  -28.6120 H   0  0  0  0  0  0  0  0  0  0  0  0
    0.6101   20.5405  -29.5657 H   0  0  0  0  0  0  0  0  0  0  0  0
   -1.0903   20.5614  -25.3695 H   0  0  0  0  0  0  0  0  0  0  0  0
   -0.5059   22.1722  -25.7328 H   0  0  0  0  0  0  0  0  0  0  0  0
    0.4299   21.5004  -23.5946 H   0  0  0  0  0  0  0  0  0  0  0  0
    2.3626   22.6223  -24.9430 H   0  0  0  0  0  0  0  0  0  0  0  0
    4.1210   20.8037  -25.3064 H   0  0  0  0  0  0  0  0  0  0  0  0
    3.1937   18.6862  -24.0709 H   0  0  0  0  0  0  0  0  0  0  0  0
    4.6356   18.2426  -26.3753 H   0  0  0  0  0  0  0  0  0  0  0  0
    0.2893   15.4372  -30.0442 H   0  0  0  0  0  0  0  0  0  0  0  0
    3.1679   15.8085  -29.6345 H   0  0  0  0  0  0  0  0  0  0  0  0
    2.0328   13.0210  -30.8996 H   0  0  0  0  0  0  0  0  0  0  0  0
    2.9058   13.5529  -29.4509 H   0  0  0  0  0  0  0  0  0  0  0  0
    2.2066   14.7458  -32.3542 H   0  0  0  0  0  0  0  0  0  0  0  0
    3.9086   14.6390  -31.7609 H   0  0  0  0  0  0  0  0  0  0  0  0
   -2.3977   16.3595  -27.2093 H   0  0  0  0  0  0  0  0  0  0  0  0
   -2.0858   17.1961  -25.7271 H   0  0  0  0  0  0  0  0  0  0  0  0
    1.3916   19.5381  -23.0052 H   0  0  0  0  0  0  0  0  0  0  0  0
    0.3917   18.8519  -24.2356 H   0  0  0  0  0  0  0  0  0  0  0  0
    2.8216   10.4499  -26.3300 H   0  0  0  0  0  0  0  0  0  0  0  0
    3.5937    9.1419  -27.2326 H   0  0  0  0  0  0  0  0  0  0  0  0
  1  2  1  0  0  0  0
  1 57  1  0  0  0  0
  1 58  1  0  0  0  0
  2  3  1  0  0  0  0
  2 56  2  0  0  0  0
  3  4  2  0  0  0  0
  4  5  1  0  0  0  0
  4  9  1  0  0  0  0
  5  6  1  0  0  0  0
  5 59  1  0  0  0  0
  6  7  1  0  0  0  0
  6  8  1  0  0  0  0
  6 60  1  0  0  0  0
  7  8  1  0  0  0  0
  7 61  1  0  0  0  0
  7 62  1  0  0  0  0
  8 63  1  0  0  0  0
  8 64  1  0  0  0  0
  9 10  1  0  0  0  0
  9 55  2  0  0  0  0
 10 11  2  0  0  0  0
 11 12  1  0  0  0  0
 11 65  1  0  0  0  0
 12 13  1  0  0  0  0
 12 55  1  0  0  0  0
 13 14  1  0  0  0  0
 13 54  1  0  0  0  0
 13 66  1  6  0  0  0
 14 15  2  0  0  0  0
 14 67  1  0  0  0  0
 15 16  1  0  0  0  0
 15 68  1  0  0  0  0
 16 54  1  0  0  0  0
 16 17  1  0  0  0  0
 16 69  1  6  0  0  0
 17 18  1  0  0  0  0
 17 70  1  0  0  0  0
 17 71  1  0  0  0  0
 18 19  1  0  0  0  0
 19 20  2  0  0  0  0
 19 21  1  0  0  0  0
 21 22  1  0  0  0  0
 21 72  1  0  0  0  0
 21 73  1  0  0  0  0
 22 23  1  0  0  0  0
 22 74  1  0  0  0  0
 22 75  1  0  0  0  0
 23 24  1  0  0  0  0
 23 76  1  0  0  0  0
 23 77  1  0  0  0  0
 24 25  1  0  0  0  0
 24 78  1  0  0  0  0
 24 79  1  0  0  0  0
 25 26  1  0  0  0  0
 25 80  1  0  0  0  0
 25 81  1  0  0  0  0
 26 27  1  0  0  0  0
 26 82  1  0  0  0  0
 26 83  1  0  0  0  0
 27 28  1  0  0  0  0
 27 84  1  0  0  0  0
 27 85  1  0  0  0  0
 28 29  1  0  0  0  0
 28 86  1  0  0  0  0
 28 87  1  0  0  0  0
 29 30  1  0  0  0  0
 29 88  1  0  0  0  0
 29 89  1  0  0  0  0
 30 31  1  0  0  0  0
 30 90  1  0  0  0  0
 30 91  1  0  0  0  0
 31 32  2  0  0  0  0
 31 33  1  0  0  0  0
 33 34  1  0  0  0  0
 34 92  1  0  0  0  0
 34 93  1  0  0  0  0
 35 36  1  0  0  0  0
 35 53  1  0  0  0  0
 35 34  1  0  0  0  0
 35 94  1  1  0  0  0
 36 37  2  0  0  0  0
 36 95  1  0  0  0  0
 37 38  1  0  0  0  0
 37 96  1  0  0  0  0
 38 39  1  0  0  0  0
 38 53  1  0  0  0  0
 38 97  1  1  0  0  0
 39 40  1  0  0  0  0
 39 52  1  0  0  0  0
 40 41  2  0  0  0  0
 40 98  1  0  0  0  0
 41 42  1  0  0  0  0
 42 43  1  0  0  0  0
 42 52  2  0  0  0  0
 43 44  1  0  0  0  0
 43 48  2  0  0  0  0
 44 45  1  0  0  0  0
 44 99  1  0  0  0  0
 45 46  1  0  0  0  0
 45 47  1  0  0  0  0
 45100  1  0  0  0  0
 46 47  1  0  0  0  0
 46101  1  0  0  0  0
 46102  1  0  0  0  0
 47103  1  0  0  0  0
 47104  1  0  0  0  0
 48 49  1  0  0  0  0
 49 50  1  0  0  0  0
 49 51  2  0  0  0  0
 50105  1  0  0  0  0
 50106  1  0  0  0  0
 51 52  1  0  0  0  0
 53107  1  0  0  0  0
 53108  1  0  0  0  0
 54109  1  0  0  0  0
 54110  1  0  0  0  0
 55 56  1  0  0  0  0
M  END
>  <Energy>
-37.4293

$$$$