1019287
  -OEChem-03242010103D

 38 39  0     0  0  0  0  0  0999 V2000
   -7.5889   -0.0274   -0.2684 Br  0  0  0  0  0  0  0  0  0  0  0  0
    4.8088   -0.6292    0.1614 O   0  0  0  0  0  0  0  0  0  0  0  0
    4.0247    1.9908   -0.2720 O   0  0  0  0  0  0  0  0  0  0  0  0
    2.8971   -2.5654    0.6778 O   0  0  0  0  0  0  0  0  0  0  0  0
   -0.9420    1.9152    0.6169 O   0  0  0  0  0  0  0  0  0  0  0  0
   -1.5254   -0.2747    0.0095 N   0  0  0  0  0  0  0  0  0  0  0  0
    0.7851    0.3923    0.2863 C   0  0  0  0  0  0  0  0  0  0  0  0
    3.4878   -0.2939    0.2031 C   0  0  0  0  0  0  0  0  0  0  0  0
    3.0964    1.0269   -0.0161 C   0  0  0  0  0  0  0  0  0  0  0  0
    2.5277   -1.2717    0.4639 C   0  0  0  0  0  0  0  0  0  0  0  0
    1.7450    1.3700    0.0255 C   0  0  0  0  0  0  0  0  0  0  0  0
    1.1763   -0.9285    0.5055 C   0  0  0  0  0  0  0  0  0  0  0  0
   -0.6241    0.7501    0.3293 C   0  0  0  0  0  0  0  0  0  0  0  0
   -2.9393   -0.2171   -0.0554 C   0  0  0  0  0  0  0  0  0  0  0  0
   -3.5804    0.9778    0.2219 C   0  0  0  0  0  0  0  0  0  0  0  0
   -3.6475   -1.3572   -0.3945 C   0  0  0  0  0  0  0  0  0  0  0  0
   -4.9726    1.0347    0.1582 C   0  0  0  0  0  0  0  0  0  0  0  0
   -5.0398   -1.3004   -0.4583 C   0  0  0  0  0  0  0  0  0  0  0  0
   -5.7024   -0.1044   -0.1820 C   0  0  0  0  0  0  0  0  0  0  0  0
    5.4990   -0.3884   -1.0626 C   0  0  0  0  0  0  0  0  0  0  0  0
    3.5414    3.3156   -0.4848 C   0  0  0  0  0  0  0  0  0  0  0  0
    2.9732   -3.4151   -0.4652 C   0  0  0  0  0  0  0  0  0  0  0  0
    1.3905    2.3806   -0.1460 H   0  0  0  0  0  0  0  0  0  0  0  0
    0.4652   -1.7122    0.7514 H   0  0  0  0  0  0  0  0  0  0  0  0
   -1.1495   -1.1799   -0.2585 H   0  0  0  0  0  0  0  0  0  0  0  0
   -3.0886    1.9003    0.4917 H   0  0  0  0  0  0  0  0  0  0  0  0
   -3.1414   -2.2937   -0.6113 H   0  0  0  0  0  0  0  0  0  0  0  0
   -5.4749    1.9738    0.3763 H   0  0  0  0  0  0  0  0  0  0  0  0
   -5.5934   -2.1971   -0.7248 H   0  0  0  0  0  0  0  0  0  0  0  0
    6.2506   -1.1739   -1.1853 H   0  0  0  0  0  0  0  0  0  0  0  0
    4.8290   -0.4195   -1.9290 H   0  0  0  0  0  0  0  0  0  0  0  0
    6.0187    0.5727   -1.0172 H   0  0  0  0  0  0  0  0  0  0  0  0
    4.4143    3.9499   -0.6719 H   0  0  0  0  0  0  0  0  0  0  0  0
    2.9091    3.3766   -1.3772 H   0  0  0  0  0  0  0  0  0  0  0  0
    3.0463    3.7138    0.4074 H   0  0  0  0  0  0  0  0  0  0  0  0
    3.7109   -3.0371   -1.1798 H   0  0  0  0  0  0  0  0  0  0  0  0
    1.9935   -3.4991   -0.9459 H   0  0  0  0  0  0  0  0  0  0  0  0
    3.2860   -4.4087   -0.1330 H   0  0  0  0  0  0  0  0  0  0  0  0
  1 19  1  0  0  0  0
  2  8  1  0  0  0  0
  2 20  1  0  0  0  0
  3  9  1  0  0  0  0
  3 21  1  0  0  0  0
  4 10  1  0  0  0  0
  4 22  1  0  0  0  0
  5 13  2  0  0  0  0
  6 13  1  0  0  0  0
  6 14  1  0  0  0  0
  6 25  1  0  0  0  0
  7 11  2  0  0  0  0
  7 12  1  0  0  0  0
  7 13  1  0  0  0  0
  8  9  2  0  0  0  0
  8 10  1  0  0  0  0
  9 11  1  0  0  0  0
 10 12  2  0  0  0  0
 11 23  1  0  0  0  0
 12 24  1  0  0  0  0
 14 15  2  0  0  0  0
 14 16  1  0  0  0  0
 15 17  1  0  0  0  0
 15 26  1  0  0  0  0
 16 18  2  0  0  0  0
 16 27  1  0  0  0  0
 17 19  2  0  0  0  0
 17 28  1  0  0  0  0
 18 19  1  0  0  0  0
 18 29  1  0  0  0  0
 20 30  1  0  0  0  0
 20 31  1  0  0  0  0
 20 32  1  0  0  0  0
 21 33  1  0  0  0  0
 21 34  1  0  0  0  0
 21 35  1  0  0  0  0
 22 36  1  0  0  0  0
 22 37  1  0  0  0  0
 22 38  1  0  0  0  0
M  END
> <PUBCHEM_COMPOUND_CID>
1019287

> <PUBCHEM_CONFORMER_RMSD>
0.8

> <PUBCHEM_CONFORMER_DIVERSEORDER>
3
4
1
6
5
2

> <PUBCHEM_MMFF94_PARTIAL_CHARGES>
29
1 -0.11
10 0.08
11 -0.15
12 -0.15
13 0.54
14 0.12
15 -0.15
16 -0.15
17 -0.15
18 -0.15
19 0.11
2 -0.36
20 0.28
21 0.28
22 0.28
23 0.15
24 0.15
25 0.37
26 0.15
27 0.15
28 0.15
29 0.15
3 -0.36
4 -0.36
5 -0.57
6 -0.55
7 0.09
8 0.08
9 0.08

> <PUBCHEM_EFFECTIVE_ROTOR_COUNT>
6

> <PUBCHEM_PHARMACOPHORE_FEATURES>
8
1 1 hydrophobe
1 2 acceptor
1 3 acceptor
1 4 acceptor
1 5 acceptor
1 6 donor
6 14 15 16 17 18 19 rings
6 7 8 9 10 11 12 rings

> <PUBCHEM_HEAVY_ATOM_COUNT>
22

> <PUBCHEM_ATOM_DEF_STEREO_COUNT>
0

> <PUBCHEM_ATOM_UDEF_STEREO_COUNT>
0

> <PUBCHEM_BOND_DEF_STEREO_COUNT>
0

> <PUBCHEM_BOND_UDEF_STEREO_COUNT>
0

> <PUBCHEM_ISOTOPIC_ATOM_COUNT>
0

> <PUBCHEM_COMPONENT_COUNT>
1

> <PUBCHEM_CACTVS_TAUTO_COUNT>
2

> <PUBCHEM_CONFORMER_ID>
000F8D9700000003

> <PUBCHEM_MMFF94_ENERGY>
97.6161

> <PUBCHEM_FEATURE_SELFOVERLAP>
40.606

> <PUBCHEM_SHAPE_FINGERPRINT>
10411042 1 18048594825152350442
10595046 47 18412261770619532885
10616163 171 18342455980268901143
10693767 8 18200038327068155958
12107183 9 17837496241702138969
12236239 1 18130790053156149433
12730499 353 18187090576084306562
12788726 201 17632306661774737097
13167823 11 18341893008940226935
13533116 47 18343298159347284083
13836976 161 18335424586587522542
14251764 18 18130791196814701915
14528608 73 18336829791874365732
14576447 43 18411982434230626082
14617045 38 18411141320710139079
15183329 4 18411696561703237461
15196674 1 18411136982745138649
15250474 111 18200016456772820671
15475509 35 14620521060743064654
17492 89 18196934370607374851
17834072 33 18410854382523945669
17844677 252 18409453566219516389
18335252 98 18261678199035848851
18681886 176 18343579664383348242
19427546 62 18189898793290304760
200 152 18342738511490444945
20554085 129 17843397643396592192
20612939 158 18335704969988749797
20645477 70 18408884014357723882
21267235 1 18412832373777349339
220451 1 18131351943149349959
221357 26 18335699425439145941
23559900 14 18412257371829353600
239999 70 18272375278346685006
255183 451 18056204566381511566
29717793 49 18131917065538662685
3004659 81 18410291406447331761
314194 84 18271522083241098883
335352 9 18408606968246617638
3545911 37 18335420175587349061
4073 2 18041846224585976147
4214541 1 18411980239771545049
42630746 31 18411415150956045920
46194498 28 17821730537201700892
5104073 3 18409729594950570489
5281201 14 17968091976236101333
59755656 215 18408606941854445102
6025842 7 18409729577575359254
6327066 14 17828770874255599612
67856867 119 18410566314630303552
7164475 11 18339360747351240936
77779 3 18409728461326863441
8272917 22 18410293618461094726
9709674 26 18335988592523000747
9999458 23 18334858346773399230

> <PUBCHEM_SHAPE_MULTIPOLES>
430.23
15.54
2.76
0.77
20.74
0.34
-0.05
0.78
-2.96
-4.51
-0.27
-0.29
0.07
-0.69

> <PUBCHEM_SHAPE_SELFOVERLAP>
901.574

> <PUBCHEM_SHAPE_VOLUME>
251

> <PUBCHEM_COORDINATE_TYPE>
2
5
10

$$$$