56946727
  -OEChem-03242010093D

 50 52  0     0  0  0  0  0  0999 V2000
    5.7745    2.3061    0.3438 O   0  0  0  0  0  0  0  0  0  0  0  0
    4.6802   -2.3044   -0.3491 O   0  0  0  0  0  0  0  0  0  0  0  0
    6.5707   -0.3380    0.1254 O   0  0  0  0  0  0  0  0  0  0  0  0
    0.8550    2.1695   -0.7674 O   0  0  0  0  0  0  0  0  0  0  0  0
   -1.1011   -3.1040   -0.0469 O   0  5  0  0  0  0  0  0  0  0  0  0
   -1.0719   -2.3483    2.0140 O   0  0  0  0  0  0  0  0  0  0  0  0
    0.2191    0.0256   -0.0429 N   0  0  0  0  0  0  0  0  0  0  0  0
   -1.3441   -2.2114    0.7985 N   0  3  0  0  0  0  0  0  0  0  0  0
   -1.1780    0.0872   -0.0468 C   0  0  0  0  0  0  0  0  0  0  0  0
   -3.9618    0.2660   -0.0724 C   0  0  0  0  0  0  0  0  0  0  0  0
   -1.9505   -0.9996    0.3627 C   0  0  0  0  0  0  0  0  0  0  0  0
    2.5602    0.6719   -0.2560 C   0  0  0  0  0  0  0  0  0  0  0  0
   -3.3423   -0.9102    0.3499 C   0  0  0  0  0  0  0  0  0  0  0  0
   -5.4056    0.3591   -0.0870 C   0  0  0  0  0  0  0  0  0  0  0  0
   -1.7974    1.2636   -0.4690 C   0  0  0  0  0  0  0  0  0  0  0  0
   -3.1893    1.3530   -0.4819 C   0  0  0  0  0  0  0  0  0  0  0  0
    1.1248    1.0339   -0.3908 C   0  0  0  0  0  0  0  0  0  0  0  0
    2.9576   -0.6604   -0.3668 C   0  0  0  0  0  0  0  0  0  0  0  0
    3.5099    1.6654   -0.0173 C   0  0  0  0  0  0  0  0  0  0  0  0
    4.8569    1.3264    0.1106 C   0  0  0  0  0  0  0  0  0  0  0  0
    4.3047   -0.9994   -0.2389 C   0  0  0  0  0  0  0  0  0  0  0  0
    5.2542   -0.0059   -0.0002 C   0  0  0  0  0  0  0  0  0  0  0  0
   -6.0858    0.8203    1.0400 C   0  0  0  0  0  0  0  0  0  0  0  0
   -6.1171   -0.0122   -1.2278 C   0  0  0  0  0  0  0  0  0  0  0  0
   -7.4778    0.9103    1.0263 C   0  0  0  0  0  0  0  0  0  0  0  0
   -7.5090    0.0777   -1.2416 C   0  0  0  0  0  0  0  0  0  0  0  0
   -8.1893    0.5389   -0.1145 C   0  0  0  0  0  0  0  0  0  0  0  0
    6.0538    2.6210    1.7065 C   0  0  0  0  0  0  0  0  0  0  0  0
    3.6472   -3.2572   -0.5934 C   0  0  0  0  0  0  0  0  0  0  0  0
    7.3524   -0.3450   -1.0671 C   0  0  0  0  0  0  0  0  0  0  0  0
   -3.9439   -1.7595    0.6697 H   0  0  0  0  0  0  0  0  0  0  0  0
   -1.2802    2.1487   -0.8081 H   0  0  0  0  0  0  0  0  0  0  0  0
   -3.6578    2.2762   -0.8153 H   0  0  0  0  0  0  0  0  0  0  0  0
    0.5970   -0.8446    0.3167 H   0  0  0  0  0  0  0  0  0  0  0  0
    2.2093   -1.4046   -0.6060 H   0  0  0  0  0  0  0  0  0  0  0  0
    3.2137    2.7075    0.0759 H   0  0  0  0  0  0  0  0  0  0  0  0
   -5.5465    1.1138    1.9376 H   0  0  0  0  0  0  0  0  0  0  0  0
   -5.6024   -0.3738   -2.1149 H   0  0  0  0  0  0  0  0  0  0  0  0
   -8.0076    1.2693    1.9038 H   0  0  0  0  0  0  0  0  0  0  0  0
   -8.0632   -0.2113   -2.1298 H   0  0  0  0  0  0  0  0  0  0  0  0
   -9.2731    0.6089   -0.1253 H   0  0  0  0  0  0  0  0  0  0  0  0
    5.1514    2.9836    2.2089 H   0  0  0  0  0  0  0  0  0  0  0  0
    6.4502    1.7459    2.2311 H   0  0  0  0  0  0  0  0  0  0  0  0
    6.8079    3.4124    1.7276 H   0  0  0  0  0  0  0  0  0  0  0  0
    2.9244   -3.2927    0.2291 H   0  0  0  0  0  0  0  0  0  0  0  0
    3.1697   -3.0949   -1.5659 H   0  0  0  0  0  0  0  0  0  0  0  0
    4.1236   -4.2423   -0.6369 H   0  0  0  0  0  0  0  0  0  0  0  0
    8.3751   -0.6290   -0.8043 H   0  0  0  0  0  0  0  0  0  0  0  0
    7.3719    0.6509   -1.5209 H   0  0  0  0  0  0  0  0  0  0  0  0
    6.9594   -1.0754   -1.7814 H   0  0  0  0  0  0  0  0  0  0  0  0
  1 20  1  0  0  0  0
  1 28  1  0  0  0  0
  2 21  1  0  0  0  0
  2 29  1  0  0  0  0
  3 22  1  0  0  0  0
  3 30  1  0  0  0  0
  4 17  2  0  0  0  0
  5  8  1  0  0  0  0
  6  8  2  0  0  0  0
  7  9  1  0  0  0  0
  7 17  1  0  0  0  0
  7 34  1  0  0  0  0
  8 11  1  0  0  0  0
  9 11  2  0  0  0  0
  9 15  1  0  0  0  0
 10 13  2  0  0  0  0
 10 14  1  0  0  0  0
 10 16  1  0  0  0  0
 11 13  1  0  0  0  0
 12 17  1  0  0  0  0
 12 18  2  0  0  0  0
 12 19  1  0  0  0  0
 13 31  1  0  0  0  0
 14 23  2  0  0  0  0
 14 24  1  0  0  0  0
 15 16  2  0  0  0  0
 15 32  1  0  0  0  0
 16 33  1  0  0  0  0
 18 21  1  0  0  0  0
 18 35  1  0  0  0  0
 19 20  2  0  0  0  0
 19 36  1  0  0  0  0
 20 22  1  0  0  0  0
 21 22  2  0  0  0  0
 23 25  1  0  0  0  0
 23 37  1  0  0  0  0
 24 26  2  0  0  0  0
 24 38  1  0  0  0  0
 25 27  2  0  0  0  0
 25 39  1  0  0  0  0
 26 27  1  0  0  0  0
 26 40  1  0  0  0  0
 27 41  1  0  0  0  0
 28 42  1  0  0  0  0
 28 43  1  0  0  0  0
 28 44  1  0  0  0  0
 29 45  1  0  0  0  0
 29 46  1  0  0  0  0
 29 47  1  0  0  0  0
 30 48  1  0  0  0  0
 30 49  1  0  0  0  0
 30 50  1  0  0  0  0
M  CHG  2   5  -1   8   1
M  END
> <PUBCHEM_COMPOUND_CID>
56946727

> <PUBCHEM_CONFORMER_RMSD>
1

> <PUBCHEM_CONFORMER_DIVERSEORDER>
1
5
3
6
8
7
4
2

> <PUBCHEM_MMFF94_PARTIAL_CHARGES>
39
1 -0.36
11 0.13
12 0.09
13 -0.15
15 -0.15
16 -0.15
17 0.54
18 -0.15
19 -0.15
2 -0.36
20 0.08
21 0.08
22 0.08
23 -0.15
24 -0.15
25 -0.15
26 -0.15
27 -0.15
28 0.28
29 0.28
3 -0.36
30 0.28
31 0.15
32 0.15
33 0.15
34 0.37
35 0.15
36 0.15
37 0.15
38 0.15
39 0.15
4 -0.57
40 0.15
41 0.15
5 -0.52
6 -0.52
7 -0.55
8 0.91
9 0.12

> <PUBCHEM_EFFECTIVE_ROTOR_COUNT>
8

> <PUBCHEM_PHARMACOPHORE_FEATURES>
11
1 1 acceptor
1 2 acceptor
1 3 acceptor
1 4 acceptor
1 5 acceptor
1 5 anion
1 6 acceptor
1 7 donor
6 12 18 19 20 21 22 rings
6 14 23 24 25 26 27 rings
6 9 10 11 13 15 16 rings

> <PUBCHEM_HEAVY_ATOM_COUNT>
30

> <PUBCHEM_ATOM_DEF_STEREO_COUNT>
0

> <PUBCHEM_ATOM_UDEF_STEREO_COUNT>
0

> <PUBCHEM_BOND_DEF_STEREO_COUNT>
0

> <PUBCHEM_BOND_UDEF_STEREO_COUNT>
0

> <PUBCHEM_ISOTOPIC_ATOM_COUNT>
0

> <PUBCHEM_COMPONENT_COUNT>
1

> <PUBCHEM_CACTVS_TAUTO_COUNT>
2

> <PUBCHEM_CONFORMER_ID>
0364F02700000001

> <PUBCHEM_MMFF94_ENERGY>
136.3732

> <PUBCHEM_FEATURE_SELFOVERLAP>
55.915

> <PUBCHEM_SHAPE_FINGERPRINT>
10 15 17676202515650678708
10299344 5 17917992767877141973
10411042 1 17981610365296804134
10835480 77 18341047540264925208
12236239 1 17632858637617270125
12838862 33 18261660533043705534
13402501 40 18335704923208203414
13533116 47 18272652316289661368
1361 2 18272090444136616375
13617811 41 17676213450383746445
14170010 4 18335420183703192868
14251764 18 18342459214072644253
14617045 38 18335427846452038262
14725015 67 18116991088229410386
14849402 71 18059857320234563409
14856354 85 14201405989221648961
15131766 46 16269651248349105440
15183329 4 18411418397550122155
15361156 5 18114753740463042550
1577012 14 18060702784746603629
15849732 13 17022906756899827423
19315958 150 18410294748285770576
20157964 124 18342738511743730422
21033648 29 18128805529917222912
21130935 74 18342460331434502419
21521721 280 18413672405314750915
21781051 124 17386875896852668939
21859007 373 17386548207542810437
23559900 14 18338796831404484096
23569917 315 18336272336076451875
249057 3 18186805807390003724
255183 451 17772201812928988342
3004659 81 17894351094616314068
3178227 256 18113911459560660057
335352 9 18334297582288451109
3383291 50 18040438815310782979
3545911 37 18408042909906745276
3633792 109 18342176631316326089
4073 2 18336829804711970243
4093350 32 17632300029823109190
57527293 21 17387116771804048068
59755656 215 17894630310603562063
59755656 520 18408879664305004551
6081469 158 17895194360258522374
6669772 16 18334293146057602803

> <PUBCHEM_SHAPE_MULTIPOLES>
572.21
22.33
2.67
1.12
13.57
1.49
0.28
-6.14
-1.05
-4.3
0.57
0.49
-0.01
1.33

> <PUBCHEM_SHAPE_SELFOVERLAP>
1241.777

> <PUBCHEM_SHAPE_VOLUME>
313.1

> <PUBCHEM_COORDINATE_TYPE>
2
5
10

$$$$