3
 OpenBabel04022011473D

113119  0  0  1  0  0  0  0  0999 V2000
    1.1569    4.7157    4.9222 C   0  0  0  0  0  0  0  0  0  0  0  0
    0.8243    4.0230    3.6174 C   0  0  0  0  0  0  0  0  0  0  0  0
    1.3972    4.1900    2.5814 O   0  0  0  0  0  0  0  0  0  0  0  0
   -0.2116    3.1944    3.8578 O   0  0  0  0  0  0  0  0  0  0  0  0
   -0.7415    2.3668    2.8189 C   0  0  1  0  0  0  0  0  0  0  0  0
   -1.7816    3.0326    1.5918 C   0  0  0  0  0  0  0  0  0  0  0  0
   -1.7213    4.2447    1.3317 O   0  0  0  0  0  0  0  0  0  0  0  0
   -2.9827    2.1130    0.8625 C   0  0  2  0  0  0  0  0  0  0  0  0
   -3.7691    1.7636    2.2246 C   0  0  0  0  0  0  0  0  0  0  0  0
   -4.0427    3.0515    0.2179 C   0  0  1  0  0  0  0  0  0  0  0  0
   -3.4536    3.8521   -0.7907 O   0  0  0  0  0  0  0  0  0  0  0  0
   -5.2339    2.1915   -0.2821 C   0  0  0  0  0  0  0  0  0  0  0  0
   -4.9793    1.4543   -1.5746 C   0  0  1  0  0  0  0  0  0  0  0  0
   -4.7986    2.3675   -2.6772 O   0  0  0  0  0  0  0  0  0  0  0  0
   -3.4649    1.8730   -2.9085 C   0  0  0  0  0  0  0  0  0  0  0  0
   -3.5910    0.8211   -1.7428 C   0  0  2  0  0  0  0  0  0  0  0  0
   -3.4769   -0.5623   -2.1997 O   0  0  0  0  0  0  0  0  0  0  0  0
   -4.0318   -1.0058   -3.3634 C   0  0  0  0  0  0  0  0  0  0  0  0
   -3.0774   -1.9299   -4.0735 C   0  0  0  0  0  0  0  0  0  0  0  0
   -5.1277   -0.6660   -3.7952 O   0  0  0  0  0  0  0  0  0  0  0  0
   -2.5208    1.0095   -0.5573 C   0  0  1  0  0  0  0  0  0  0  0  0
   -1.5778   -0.5418   -0.5322 C   0  0  2  0  0  0  0  0  0  0  0  0
   -2.3079   -1.7861    0.0495 O   0  0  0  0  0  0  0  0  0  0  0  0
   -3.4944   -1.7195    0.7526 C   0  0  0  0  0  0  0  0  0  0  0  0
   -4.0764   -0.6666    0.9906 O   0  0  0  0  0  0  0  0  0  0  0  0
   -4.1974   -2.9339    1.2935 C   0  0  0  0  0  0  0  0  0  0  0  0
   -5.0861   -2.7202    2.3830 C   0  0  0  0  0  0  0  0  0  0  0  0
   -6.1082   -3.6217    2.7001 C   0  0  0  0  0  0  0  0  0  0  0  0
   -6.2395   -4.7807    1.9515 C   0  0  0  0  0  0  0  0  0  0  0  0
   -5.3019   -5.0674    0.9576 C   0  0  0  0  0  0  0  0  0  0  0  0
   -4.2722   -4.1552    0.6293 C   0  0  0  0  0  0  0  0  0  0  0  0
    0.0433   -0.3130   -0.0034 C   0  0  2  0  0  0  0  0  0  0  0  0
    0.7751    0.0282   -1.2050 O   0  0  0  0  0  0  0  0  0  0  0  0
    0.9446   -1.3570    0.7169 C   0  0  0  0  0  0  0  0  0  0  0  0
    1.7619   -0.7509    1.9350 C   0  0  2  0  0  0  0  0  0  0  0  0
    2.3129   -1.8185    2.7198 O   0  0  0  0  0  0  0  0  0  0  0  0
    3.4672   -2.4117    2.3403 C   0  0  0  0  0  0  0  0  0  0  0  0
    4.0998   -2.1385    1.3302 O   0  0  0  0  0  0  0  0  0  0  0  0
    3.8001   -3.5090    3.3604 C   0  0  2  0  0  0  0  0  0  0  0  0
    4.5592   -2.9787    4.4412 O   0  0  0  0  0  0  0  0  0  0  0  0
    4.4047   -4.7228    2.5995 C   0  0  1  0  0  0  0  0  0  0  0  0
    5.7019   -4.4696    1.9580 N   0  0  0  0  0  0  0  0  0  0  0  0
    6.8613   -4.1917    2.6430 C   0  0  0  0  0  0  0  0  0  0  0  0
    6.9008   -4.0244    3.8567 O   0  0  0  0  0  0  0  0  0  0  0  0
    8.0853   -4.0014    1.8263 C   0  0  0  0  0  0  0  0  0  0  0  0
    9.0859   -3.1587    2.3243 C   0  0  0  0  0  0  0  0  0  0  0  0
   10.2533   -2.9498    1.5921 C   0  0  0  0  0  0  0  0  0  0  0  0
   10.4307   -3.5942    0.3681 C   0  0  0  0  0  0  0  0  0  0  0  0
    9.4462   -4.4540   -0.1216 C   0  0  0  0  0  0  0  0  0  0  0  0
    8.2724   -4.6622    0.6061 C   0  0  0  0  0  0  0  0  0  0  0  0
    4.4552   -6.0554    3.3430 C   0  0  0  0  0  0  0  0  0  0  0  0
    4.2879   -7.2520    2.6198 C   0  0  0  0  0  0  0  0  0  0  0  0
    4.5585   -8.4901    3.2079 C   0  0  0  0  0  0  0  0  0  0  0  0
    4.9902   -8.5532    4.5294 C   0  0  0  0  0  0  0  0  0  0  0  0
    5.0941   -7.3853    5.2789 C   0  0  0  0  0  0  0  0  0  0  0  0
    4.8158   -6.1474    4.6946 C   0  0  0  0  0  0  0  0  0  0  0  0
    0.9160    0.1112    2.9159 C   0  0  0  0  0  0  0  0  0  0  0  0
    0.2579   -0.6890    4.0635 C   0  0  0  0  0  0  0  0  0  0  0  0
    0.3418    1.2286    2.3537 C   0  0  0  0  0  0  0  0  0  0  0  0
   -0.1230    0.8704    0.9679 C   0  0  0  0  0  0  0  0  0  0  0  0
    0.3176    2.1231    0.1207 C   0  0  0  0  0  0  0  0  0  0  0  0
   -1.3347    0.1361    1.7269 C   0  0  0  0  0  0  0  0  0  0  0  0
    2.1031    5.2511    4.8105 H   0  0  0  0  0  0  0  0  0  0  0  0
    1.2745    3.9781    5.7193 H   0  0  0  0  0  0  0  0  0  0  0  0
    0.3680    5.4262    5.1783 H   0  0  0  0  0  0  0  0  0  0  0  0
   -1.4838    1.8897    3.4623 H   0  0  0  0  0  0  0  0  0  0  0  0
   -3.7241    2.6553    2.8795 H   0  0  0  0  0  0  0  0  0  0  0  0
   -3.3791    0.9687    2.8508 H   0  0  0  0  0  0  0  0  0  0  0  0
   -4.8384    1.5791    2.1536 H   0  0  0  0  0  0  0  0  0  0  0  0
   -4.4369    3.7577    0.9619 H   0  0  0  0  0  0  0  0  0  0  0  0
   -2.8027    4.4374   -0.3471 H   0  0  0  0  0  0  0  0  0  0  0  0
   -6.1450    2.7913   -0.3414 H   0  0  0  0  0  0  0  0  0  0  0  0
   -5.4777    1.4010    0.4321 H   0  0  0  0  0  0  0  0  0  0  0  0
   -5.8085    0.7727   -1.7959 H   0  0  0  0  0  0  0  0  0  0  0  0
   -2.7076    2.6556   -2.8055 H   0  0  0  0  0  0  0  0  0  0  0  0
   -3.3878    1.4788   -3.9263 H   0  0  0  0  0  0  0  0  0  0  0  0
   -2.2488   -2.2365   -3.4304 H   0  0  0  0  0  0  0  0  0  0  0  0
   -2.6611   -1.4079   -4.9458 H   0  0  0  0  0  0  0  0  0  0  0  0
   -3.6016   -2.8347   -4.4044 H   0  0  0  0  0  0  0  0  0  0  0  0
   -1.8073    1.6701   -1.0419 H   0  0  0  0  0  0  0  0  0  0  0  0
   -1.4250   -0.8192   -1.5810 H   0  0  0  0  0  0  0  0  0  0  0  0
   -5.0387   -1.7917    2.9548 H   0  0  0  0  0  0  0  0  0  0  0  0
   -6.8258   -3.3898    3.4874 H   0  0  0  0  0  0  0  0  0  0  0  0
   -7.0824   -5.4538    2.1353 H   0  0  0  0  0  0  0  0  0  0  0  0
   -5.4088   -5.9935    0.3938 H   0  0  0  0  0  0  0  0  0  0  0  0
   -3.5972   -4.3908   -0.1880 H   0  0  0  0  0  0  0  0  0  0  0  0
    0.8427   -0.7621   -1.7700 H   0  0  0  0  0  0  0  0  0  0  0  0
    1.7022   -1.7431    0.0182 H   0  0  0  0  0  0  0  0  0  0  0  0
    0.3768   -2.2322    1.0399 H   0  0  0  0  0  0  0  0  0  0  0  0
    2.5784   -0.1106    1.5708 H   0  0  0  0  0  0  0  0  0  0  0  0
    2.8465   -3.8419    3.7924 H   0  0  0  0  0  0  0  0  0  0  0  0
    5.5099   -3.1153    4.2387 H   0  0  0  0  0  0  0  0  0  0  0  0
    3.7230   -4.8922    1.7518 H   0  0  0  0  0  0  0  0  0  0  0  0
    5.6691   -4.1701    0.9905 H   0  0  0  0  0  0  0  0  0  0  0  0
    8.9554   -2.6619    3.2836 H   0  0  0  0  0  0  0  0  0  0  0  0
   11.0238   -2.2883    1.9792 H   0  0  0  0  0  0  0  0  0  0  0  0
   11.3438   -3.4327   -0.1999 H   0  0  0  0  0  0  0  0  0  0  0  0
    9.6003   -4.9686   -1.0669 H   0  0  0  0  0  0  0  0  0  0  0  0
    7.5310   -5.3599    0.2270 H   0  0  0  0  0  0  0  0  0  0  0  0
    3.9900   -7.2275    1.5740 H   0  0  0  0  0  0  0  0  0  0  0  0
    4.4695   -9.4023    2.6239 H   0  0  0  0  0  0  0  0  0  0  0  0
    5.2612   -9.5079    4.9719 H   0  0  0  0  0  0  0  0  0  0  0  0
    5.4347   -7.4272    6.3104 H   0  0  0  0  0  0  0  0  0  0  0  0
    4.9577   -5.2550    5.2996 H   0  0  0  0  0  0  0  0  0  0  0  0
    0.6351   -1.7152    4.1270 H   0  0  0  0  0  0  0  0  0  0  0  0
   -0.8075   -0.8984    3.9016 H   0  0  0  0  0  0  0  0  0  0  0  0
    0.3433   -0.2152    5.0359 H   0  0  0  0  0  0  0  0  0  0  0  0
    1.4133    2.0939   -0.0010 H   0  0  0  0  0  0  0  0  0  0  0  0
    0.1671    3.1232    0.5171 H   0  0  0  0  0  0  0  0  0  0  0  0
   -0.0498    2.1610   -0.9091 H   0  0  0  0  0  0  0  0  0  0  0  0
   -1.1705   -0.9461    1.8088 H   0  0  0  0  0  0  0  0  0  0  0  0
   -1.6067    0.3126    2.7559 H   0  0  0  0  0  0  0  0  0  0  0  0
   -2.2781    0.2435    1.3019 H   0  0  0  0  0  0  0  0  0  0  0  0
  1  2  1  0  0  0  0
  1 63  1  0  0  0  0
  1 64  1  0  0  0  0
  1 65  1  0  0  0  0
  2  3  2  0  0  0  0
  2  4  1  0  0  0  0
  5  6  1  0  0  0  0
  5 59  1  0  0  0  0
  5  4  1  0  0  0  0
  5 66  1  1  0  0  0
  6  8  1  0  0  0  0
  6  7  2  0  0  0  0
  8 10  1  0  0  0  0
  8 21  1  0  0  0  0
  8  9  1  6  0  0  0
  9 67  1  0  0  0  0
  9 68  1  0  0  0  0
  9 69  1  0  0  0  0
 10 12  1  0  0  0  0
 10 11  1  0  0  0  0
 10 70  1  1  0  0  0
 11 71  1  0  0  0  0
 12 13  1  0  0  0  0
 12 72  1  0  0  0  0
 12 73  1  0  0  0  0
 13 14  1  0  0  0  0
 13 16  1  0  0  0  0
 13 74  1  6  0  0  0
 14 15  1  0  0  0  0
 15 16  1  0  0  0  0
 15 75  1  0  0  0  0
 15 76  1  0  0  0  0
 16 21  1  0  0  0  0
 16 17  1  6  0  0  0
 17 18  1  0  0  0  0
 18 19  1  0  0  0  0
 18 20  2  0  0  0  0
 19 77  1  0  0  0  0
 19 78  1  0  0  0  0
 19 79  1  0  0  0  0
 21 22  1  0  0  0  0
 21 80  1  1  0  0  0
 22 32  1  0  0  0  0
 22 23  1  0  0  0  0
 22 81  1  6  0  0  0
 23 24  1  0  0  0  0
 24 25  2  0  0  0  0
 24 26  1  0  0  0  0
 26 27  1  0  0  0  0
 26 31  2  0  0  0  0
 27 28  2  0  0  0  0
 27 82  1  0  0  0  0
 28 29  1  0  0  0  0
 28 83  1  0  0  0  0
 29 30  2  0  0  0  0
 29 84  1  0  0  0  0
 30 31  1  0  0  0  0
 30 85  1  0  0  0  0
 31 86  1  0  0  0  0
 32 34  1  0  0  0  0
 32 60  1  0  0  0  0
 32 33  1  6  0  0  0
 33 87  1  0  0  0  0
 34 35  1  0  0  0  0
 34 88  1  0  0  0  0
 34 89  1  0  0  0  0
 35 57  1  0  0  0  0
 35 36  1  0  0  0  0
 35 90  1  6  0  0  0
 36 37  1  0  0  0  0
 37 38  2  0  0  0  0
 39 41  1  0  0  0  0
 39 40  1  0  0  0  0
 39 37  1  0  0  0  0
 39 91  1  1  0  0  0
 40 92  1  0  0  0  0
 41 42  1  0  0  0  0
 41 51  1  0  0  0  0
 41 93  1  6  0  0  0
 42 43  1  0  0  0  0
 42 94  1  0  0  0  0
 43 44  2  0  0  0  0
 43 45  1  0  0  0  0
 45 46  1  0  0  0  0
 45 50  2  0  0  0  0
 46 47  2  0  0  0  0
 46 95  1  0  0  0  0
 47 48  1  0  0  0  0
 47 96  1  0  0  0  0
 48 49  2  0  0  0  0
 48 97  1  0  0  0  0
 49 50  1  0  0  0  0
 49 98  1  0  0  0  0
 50 99  1  0  0  0  0
 51 52  1  0  0  0  0
 51 56  2  0  0  0  0
 52 53  2  0  0  0  0
 52100  1  0  0  0  0
 53 54  1  0  0  0  0
 53101  1  0  0  0  0
 54 55  2  0  0  0  0
 54102  1  0  0  0  0
 55 56  1  0  0  0  0
 55103  1  0  0  0  0
 56104  1  0  0  0  0
 57 59  2  0  0  0  0
 57 58  1  0  0  0  0
 58105  1  0  0  0  0
 58106  1  0  0  0  0
 58107  1  0  0  0  0
 59 60  1  0  0  0  0
 60 61  1  0  0  0  0
 60 62  1  0  0  0  0
 61108  1  0  0  0  0
 61109  1  0  0  0  0
 61110  1  0  0  0  0
 62111  1  0  0  0  0
 62112  1  0  0  0  0
 62113  1  0  0  0  0
M  END
>  <Energy>
583.012

$$$$