96
 OpenBabel03292021553D

124127  0  0  1  0  0  0  0  0999 V2000
   10.3199   -8.9213   -2.7765 C   0  0  0  0  0  0  0  0  0  0  0  0
    9.1631   -9.4040   -2.1140 O   0  0  0  0  0  0  0  0  0  0  0  0
    9.0335   -8.9734   -0.7469 C   0  0  1  0  0  0  0  0  0  0  0  0
    7.5760   -9.2262   -0.4086 C   0  0  0  0  0  0  0  0  0  0  0  0
    7.2573   -8.9384    1.0418 C   0  0  2  0  0  0  0  0  0  0  0  0
    7.3058   -7.5731    1.4428 O   0  0  0  0  0  0  0  0  0  0  0  0
    6.5928   -6.5927    0.6718 C   0  0  2  0  0  0  0  0  0  0  0  0
    7.1962   -5.2095    1.0755 C   0  0  1  0  0  0  0  0  0  0  0  0
    7.2895   -4.9649    2.5864 C   0  0  0  0  0  0  0  0  0  0  0  0
    8.4760   -4.8189    0.3570 C   0  0  0  0  0  0  0  0  0  0  0  0
    9.0605   -5.4848   -0.4817 O   0  0  0  0  0  0  0  0  0  0  0  0
    8.7424   -3.4948    0.6159 O   0  0  0  0  0  0  0  0  0  0  0  0
    8.6689   -2.6431   -0.5456 C   0  0  2  0  0  0  0  0  0  0  0  0
   10.0580   -2.5330   -1.1797 C   0  0  0  0  0  0  0  0  0  0  0  0
    8.1339   -1.2301   -0.1474 C   0  0  2  0  0  0  0  0  0  0  0  0
    7.3832   -1.1930    1.1874 C   0  0  0  0  0  0  0  0  0  0  0  0
    7.3694   -0.5372   -1.3258 C   0  0  2  0  0  0  0  0  0  0  0  0
    7.7298    0.8809   -1.2925 O   0  0  0  0  0  0  0  0  0  0  0  0
    8.8252    1.2440   -2.0210 C   0  0  0  0  0  0  0  0  0  0  0  0
    8.8612    2.7294   -2.2067 C   0  0  0  0  0  0  0  0  0  0  0  0
    9.6274    0.4746   -2.5266 O   0  0  0  0  0  0  0  0  0  0  0  0
    5.7960   -0.6038   -1.3323 C   0  0  1  0  0  0  0  0  0  0  0  0
    5.2302    0.5915   -2.1246 C   0  0  0  0  0  0  0  0  0  0  0  0
    5.2470   -1.9203   -1.9052 C   0  0  0  0  0  0  0  0  0  0  0  0
    5.9602   -2.6917   -2.5402 O   0  0  0  0  0  0  0  0  0  0  0  0
    3.7995   -2.3246   -1.6326 C   0  0  1  0  0  0  0  0  0  0  0  0
    2.7926   -1.3588   -1.0137 C   0  0  0  0  0  0  0  0  0  0  0  0
    2.8605   -1.5601   -2.4229 O   0  0  0  0  0  0  0  0  0  0  0  0
    3.4269   -3.8206   -1.5959 C   0  0  0  0  0  0  0  0  0  0  0  0
    3.5971   -4.5348   -0.2104 C   0  0  2  0  0  0  0  0  0  0  0  0
    4.1933   -3.5797    0.8249 C   0  0  0  0  0  0  0  0  0  0  0  0
    4.2454   -5.9870   -0.4012 C   0  0  2  0  0  0  0  0  0  0  0  0
    3.1245   -6.7932   -0.8752 O   0  0  0  0  0  0  0  0  0  0  0  0
    3.4063   -8.1064   -1.3790 C   0  0  2  0  0  0  0  0  0  0  0  0
    4.3304   -8.0864   -2.4659 O   0  0  0  0  0  0  0  0  0  0  0  0
    4.8430   -9.4052   -2.6861 C   0  0  2  0  0  0  0  0  0  0  0  0
    5.9456   -9.3368   -3.7318 C   0  0  0  0  0  0  0  0  0  0  0  0
    3.7407  -10.3791   -3.0967 C   0  0  0  0  0  0  0  0  0  0  0  0
    2.5466  -10.4033   -2.1050 C   0  0  2  0  0  0  0  0  0  0  0  0
    1.5123  -11.3568   -2.6345 N   0  0  0  0  0  0  0  0  0  0  0  0
    0.2697  -11.3845   -1.8623 C   0  0  0  0  0  0  0  0  0  0  0  0
    2.0296  -12.7392   -2.6764 C   0  0  0  0  0  0  0  0  0  0  0  0
    2.1302   -8.8996   -1.8209 C   0  0  1  0  0  0  0  0  0  0  0  0
    1.0304   -8.7417   -0.8865 O   0  0  0  0  0  0  0  0  0  0  0  0
    1.1428   -9.2063    0.3781 C   0  0  0  0  0  0  0  0  0  0  0  0
   -0.1401   -9.0257    1.1272 C   0  0  0  0  0  0  0  0  0  0  0  0
    2.1309   -9.7642    0.8435 O   0  0  0  0  0  0  0  0  0  0  0  0
    5.0108   -6.5409    0.8895 C   0  0  1  0  0  0  0  0  0  0  0  0
    4.3643   -7.7079    1.6254 C   0  0  0  0  0  0  0  0  0  0  0  0
    8.0937   -9.7436    1.8724 O   0  0  0  0  0  0  0  0  0  0  0  0
    9.4914   -9.5300    1.6810 C   0  0  1  0  0  0  0  0  0  0  0  0
   10.1886  -10.5140    2.6201 C   0  0  0  0  0  0  0  0  0  0  0  0
    9.9408   -9.7469    0.2201 C   0  0  2  0  0  0  0  0  0  0  0  0
   11.2848   -9.2294    0.0890 O   0  0  0  0  0  0  0  0  0  0  0  0
   12.2932  -10.1309   -0.0758 C   0  0  0  0  0  0  0  0  0  0  0  0
   13.6062   -9.4203   -0.1011 C   0  0  0  0  0  0  0  0  0  0  0  0
   12.1626  -11.3391   -0.1336 O   0  0  0  0  0  0  0  0  0  0  0  0
   10.1098   -8.9014   -3.8494 H   0  0  0  0  0  0  0  0  0  0  0  0
   11.1530   -9.6082   -2.6113 H   0  0  0  0  0  0  0  0  0  0  0  0
   10.5872   -7.9087   -2.4585 H   0  0  0  0  0  0  0  0  0  0  0  0
    9.2428   -7.9020   -0.6948 H   0  0  0  0  0  0  0  0  0  0  0  0
    7.3471  -10.2792   -0.6221 H   0  0  0  0  0  0  0  0  0  0  0  0
    6.9540   -8.6358   -1.0808 H   0  0  0  0  0  0  0  0  0  0  0  0
    6.2659   -9.3245    1.2457 H   0  0  0  0  0  0  0  0  0  0  0  0
    6.8044   -6.7428   -0.3896 H   0  0  0  0  0  0  0  0  0  0  0  0
    6.5185   -4.4731    0.6526 H   0  0  0  0  0  0  0  0  0  0  0  0
    7.1734   -5.8808    3.1718 H   0  0  0  0  0  0  0  0  0  0  0  0
    6.4872   -4.2890    2.9015 H   0  0  0  0  0  0  0  0  0  0  0  0
    8.2348   -4.5010    2.8854 H   0  0  0  0  0  0  0  0  0  0  0  0
    7.9878   -3.1023   -1.2649 H   0  0  0  0  0  0  0  0  0  0  0  0
   10.7388   -1.9629   -0.5398 H   0  0  0  0  0  0  0  0  0  0  0  0
   10.0063   -2.0436   -2.1551 H   0  0  0  0  0  0  0  0  0  0  0  0
   10.5143   -3.5161   -1.3168 H   0  0  0  0  0  0  0  0  0  0  0  0
    9.0214   -0.6136    0.0563 H   0  0  0  0  0  0  0  0  0  0  0  0
    6.5549   -1.8985    1.2120 H   0  0  0  0  0  0  0  0  0  0  0  0
    6.9906   -0.1919    1.3934 H   0  0  0  0  0  0  0  0  0  0  0  0
    8.0520   -1.4488    2.0170 H   0  0  0  0  0  0  0  0  0  0  0  0
    7.7252   -0.9459   -2.2793 H   0  0  0  0  0  0  0  0  0  0  0  0
    8.6465    3.2391   -1.2642 H   0  0  0  0  0  0  0  0  0  0  0  0
    8.1318    3.0145   -2.9705 H   0  0  0  0  0  0  0  0  0  0  0  0
    9.8607    3.0284   -2.5366 H   0  0  0  0  0  0  0  0  0  0  0  0
    5.4240   -0.5199   -0.3071 H   0  0  0  0  0  0  0  0  0  0  0  0
    5.8655    0.8508   -2.9791 H   0  0  0  0  0  0  0  0  0  0  0  0
    5.1694    1.4727   -1.4712 H   0  0  0  0  0  0  0  0  0  0  0  0
    4.2322    0.4256   -2.5296 H   0  0  0  0  0  0  0  0  0  0  0  0
    3.1206   -0.4122   -0.6054 H   0  0  0  0  0  0  0  0  0  0  0  0
    1.9320   -1.7625   -0.4921 H   0  0  0  0  0  0  0  0  0  0  0  0
    3.9936   -4.3351   -2.3800 H   0  0  0  0  0  0  0  0  0  0  0  0
    2.3738   -3.9297   -1.8933 H   0  0  0  0  0  0  0  0  0  0  0  0
    2.5746   -4.7224    0.1512 H   0  0  0  0  0  0  0  0  0  0  0  0
    5.1263   -3.1568    0.4681 H   0  0  0  0  0  0  0  0  0  0  0  0
    4.3464   -4.0126    1.8117 H   0  0  0  0  0  0  0  0  0  0  0  0
    3.5176   -2.7423    1.0178 H   0  0  0  0  0  0  0  0  0  0  0  0
    4.9657   -5.9183   -1.2219 H   0  0  0  0  0  0  0  0  0  0  0  0
    3.8598   -8.6681   -0.5828 H   0  0  0  0  0  0  0  0  0  0  0  0
    5.2804   -9.7666   -1.7522 H   0  0  0  0  0  0  0  0  0  0  0  0
    5.5337   -9.1841   -4.7349 H   0  0  0  0  0  0  0  0  0  0  0  0
    6.5262  -10.2638   -3.7356 H   0  0  0  0  0  0  0  0  0  0  0  0
    6.6206   -8.5001   -3.5324 H   0  0  0  0  0  0  0  0  0  0  0  0
    4.2096  -11.3644   -3.1688 H   0  0  0  0  0  0  0  0  0  0  0  0
    3.3661  -10.1153   -4.0938 H   0  0  0  0  0  0  0  0  0  0  0  0
    2.9105  -10.8256   -1.1592 H   0  0  0  0  0  0  0  0  0  0  0  0
   -0.4220  -12.1315   -2.2716 H   0  0  0  0  0  0  0  0  0  0  0  0
   -0.2704  -10.4370   -1.9334 H   0  0  0  0  0  0  0  0  0  0  0  0
    0.4418  -11.6409   -0.8104 H   0  0  0  0  0  0  0  0  0  0  0  0
    1.2502  -13.4382   -3.0096 H   0  0  0  0  0  0  0  0  0  0  0  0
    2.3843  -13.0748   -1.6925 H   0  0  0  0  0  0  0  0  0  0  0  0
    2.8371  -12.8572   -3.4012 H   0  0  0  0  0  0  0  0  0  0  0  0
    1.7647   -8.4689   -2.7626 H   0  0  0  0  0  0  0  0  0  0  0  0
   -0.8480   -8.4182    0.5557 H   0  0  0  0  0  0  0  0  0  0  0  0
    0.0582   -8.5182    2.0746 H   0  0  0  0  0  0  0  0  0  0  0  0
   -0.5923  -10.0039    1.3072 H   0  0  0  0  0  0  0  0  0  0  0  0
    4.8923   -5.7862    1.6605 H   0  0  0  0  0  0  0  0  0  0  0  0
    4.4856   -8.6687    1.1427 H   0  0  0  0  0  0  0  0  0  0  0  0
    3.2910   -7.5291    1.7526 H   0  0  0  0  0  0  0  0  0  0  0  0
    4.7944   -7.8113    2.6281 H   0  0  0  0  0  0  0  0  0  0  0  0
    9.7450   -8.5143    2.0084 H   0  0  0  0  0  0  0  0  0  0  0  0
    9.9225  -11.5457    2.3631 H   0  0  0  0  0  0  0  0  0  0  0  0
    9.8532  -10.3573    3.6513 H   0  0  0  0  0  0  0  0  0  0  0  0
   11.2762  -10.4134    2.5920 H   0  0  0  0  0  0  0  0  0  0  0  0
    9.8880  -10.8104   -0.0450 H   0  0  0  0  0  0  0  0  0  0  0  0
   13.4957   -8.4291   -0.5553 H   0  0  0  0  0  0  0  0  0  0  0  0
   14.3142   -9.9872   -0.7083 H   0  0  0  0  0  0  0  0  0  0  0  0
   13.9813   -9.3180    0.9201 H   0  0  0  0  0  0  0  0  0  0  0  0
  1  2  1  0  0  0  0
  1 58  1  0  0  0  0
  1 59  1  0  0  0  0
  1 60  1  0  0  0  0
  2  3  1  0  0  0  0
  3  4  1  0  0  0  0
  3 53  1  0  0  0  0
  3 61  1  1  0  0  0
  4  5  1  0  0  0  0
  4 62  1  0  0  0  0
  4 63  1  0  0  0  0
  5 50  1  0  0  0  0
  5  6  1  0  0  0  0
  5 64  1  1  0  0  0
  6  7  1  0  0  0  0
  7  8  1  0  0  0  0
  7 48  1  0  0  0  0
  7 65  1  6  0  0  0
  8 10  1  0  0  0  0
  8  9  1  0  0  0  0
  8 66  1  6  0  0  0
  9 67  1  0  0  0  0
  9 68  1  0  0  0  0
  9 69  1  0  0  0  0
 10 12  1  0  0  0  0
 10 11  2  0  0  0  0
 12 13  1  0  0  0  0
 13 15  1  0  0  0  0
 13 14  1  0  0  0  0
 13 70  1  6  0  0  0
 14 71  1  0  0  0  0
 14 72  1  0  0  0  0
 14 73  1  0  0  0  0
 15 17  1  0  0  0  0
 15 16  1  0  0  0  0
 15 74  1  1  0  0  0
 16 75  1  0  0  0  0
 16 76  1  0  0  0  0
 16 77  1  0  0  0  0
 17 22  1  0  0  0  0
 17 18  1  0  0  0  0
 17 78  1  6  0  0  0
 18 19  1  0  0  0  0
 19 20  1  0  0  0  0
 19 21  2  0  0  0  0
 20 79  1  0  0  0  0
 20 80  1  0  0  0  0
 20 81  1  0  0  0  0
 22 24  1  0  0  0  0
 22 23  1  0  0  0  0
 22 82  1  1  0  0  0
 23 83  1  0  0  0  0
 23 84  1  0  0  0  0
 23 85  1  0  0  0  0
 24 25  2  0  0  0  0
 26 24  1  6  0  0  0
 26 27  1  0  0  0  0
 26 28  1  0  0  0  0
 26 29  1  0  0  0  0
 27 28  1  0  0  0  0
 27 86  1  0  0  0  0
 27 87  1  0  0  0  0
 29 30  1  0  0  0  0
 29 88  1  0  0  0  0
 29 89  1  0  0  0  0
 30 32  1  0  0  0  0
 30 31  1  0  0  0  0
 30 90  1  1  0  0  0
 31 91  1  0  0  0  0
 31 92  1  0  0  0  0
 31 93  1  0  0  0  0
 32 48  1  0  0  0  0
 32 33  1  0  0  0  0
 32 94  1  6  0  0  0
 34 35  1  0  0  0  0
 34 43  1  0  0  0  0
 34 33  1  0  0  0  0
 34 95  1  1  0  0  0
 35 36  1  0  0  0  0
 36 37  1  0  0  0  0
 36 38  1  0  0  0  0
 36 96  1  1  0  0  0
 37 97  1  0  0  0  0
 37 98  1  0  0  0  0
 37 99  1  0  0  0  0
 38 39  1  0  0  0  0
 38100  1  0  0  0  0
 38101  1  0  0  0  0
 39 43  1  0  0  0  0
 39 40  1  0  0  0  0
 39102  1  1  0  0  0
 40 41  1  0  0  0  0
 40 42  1  0  0  0  0
 41103  1  0  0  0  0
 41104  1  0  0  0  0
 41105  1  0  0  0  0
 42106  1  0  0  0  0
 42107  1  0  0  0  0
 42108  1  0  0  0  0
 43 44  1  0  0  0  0
 43109  1  6  0  0  0
 44 45  1  0  0  0  0
 45 46  1  0  0  0  0
 45 47  2  0  0  0  0
 46110  1  0  0  0  0
 46111  1  0  0  0  0
 46112  1  0  0  0  0
 48 49  1  0  0  0  0
 48113  1  1  0  0  0
 49114  1  0  0  0  0
 49115  1  0  0  0  0
 49116  1  0  0  0  0
 50 51  1  0  0  0  0
 51 52  1  0  0  0  0
 51 53  1  0  0  0  0
 51117  1  1  0  0  0
 52118  1  0  0  0  0
 52119  1  0  0  0  0
 52120  1  0  0  0  0
 53 54  1  0  0  0  0
 53121  1  6  0  0  0
 54 55  1  0  0  0  0
 55 56  1  0  0  0  0
 55 57  2  0  0  0  0
 56122  1  0  0  0  0
 56123  1  0  0  0  0
 56124  1  0  0  0  0
M  END
>  <Energy>
161.376

$$$$