443869
  -OEChem-03242010103D

 65 68  0     1  0  0  0  0  0999 V2000
    0.2510    1.9851   -0.3379 O   0  0  0  0  0  0  0  0  0  0  0  0
   -1.3342    3.3915   -1.2699 O   0  0  0  0  0  0  0  0  0  0  0  0
   -5.0383   -0.6231   -1.5234 O   0  0  0  0  0  0  0  0  0  0  0  0
   -4.6902   -2.3219    0.0105 O   0  0  0  0  0  0  0  0  0  0  0  0
    1.6977   -3.6332    0.8607 O   0  5  0  0  0  0  0  0  0  0  0  0
    0.5349   -2.4403    2.2902 O   0  0  0  0  0  0  0  0  0  0  0  0
    3.3859    2.0453   -0.1857 N   0  0  2  0  0  0  0  0  0  0  0  0
   -3.2732    1.2460    2.1410 N   0  0  0  0  0  0  0  0  0  0  0  0
    0.8216   -2.7713    1.1143 N   0  3  0  0  0  0  0  0  0  0  0  0
    1.2885    2.6670   -1.0305 C   0  0  1  0  0  0  0  0  0  0  0  0
    1.8487    3.7937   -0.1644 C   0  0  0  0  0  0  0  0  0  0  0  0
    2.4571    1.7170   -1.2715 C   0  0  0  0  0  0  0  0  0  0  0  0
    3.3384    3.5017   -0.0664 C   0  0  0  0  0  0  0  0  0  0  0  0
    4.7317    1.5513   -0.4364 C   0  0  0  0  0  0  0  0  0  0  0  0
   -2.5730    0.4513   -0.4869 C   0  0  2  0  0  0  0  0  0  0  0  0
   -1.9487    1.6565    0.2233 C   0  0  0  0  0  0  0  0  0  0  0  0
   -0.9976    2.4624   -0.5594 C   0  0  0  0  0  0  0  0  0  0  0  0
    4.8687    0.0938   -0.0849 C   0  0  0  0  0  0  0  0  0  0  0  0
   -3.7262   -0.1767    0.3044 C   0  0  0  0  0  0  0  0  0  0  0  0
   -2.2956    1.9805    1.4895 C   0  0  0  0  0  0  0  0  0  0  0  0
   -1.5194   -0.5827   -0.7632 C   0  0  0  0  0  0  0  0  0  0  0  0
   -4.0139    0.2271    1.5628 C   0  0  0  0  0  0  0  0  0  0  0  0
    5.2527   -0.2798    1.2030 C   0  0  0  0  0  0  0  0  0  0  0  0
    4.6120   -0.8831   -1.0469 C   0  0  0  0  0  0  0  0  0  0  0  0
   -1.7077    3.1083    2.2938 C   0  0  0  0  0  0  0  0  0  0  0  0
   -0.8440   -1.1909    0.2950 C   0  0  0  0  0  0  0  0  0  0  0  0
   -1.2166   -0.9350   -2.0784 C   0  0  0  0  0  0  0  0  0  0  0  0
   -4.5348   -1.1860   -0.3985 C   0  0  0  0  0  0  0  0  0  0  0  0
   -5.0956   -0.3470    2.4373 C   0  0  0  0  0  0  0  0  0  0  0  0
    5.3798   -1.6300    1.5289 C   0  0  0  0  0  0  0  0  0  0  0  0
    4.7390   -2.2333   -0.7209 C   0  0  0  0  0  0  0  0  0  0  0  0
    0.1341   -2.1515    0.0377 C   0  0  0  0  0  0  0  0  0  0  0  0
   -0.2384   -1.8955   -2.3357 C   0  0  0  0  0  0  0  0  0  0  0  0
    5.1229   -2.6069    0.5670 C   0  0  0  0  0  0  0  0  0  0  0  0
    0.4369   -2.5038   -1.2775 C   0  0  0  0  0  0  0  0  0  0  0  0
   -5.8545   -1.4869   -2.3211 C   0  0  0  0  0  0  0  0  0  0  0  0
    0.9366    3.0454   -1.9986 H   0  0  0  0  0  0  0  0  0  0  0  0
    1.6727    4.7739   -0.6194 H   0  0  0  0  0  0  0  0  0  0  0  0
    1.3905    3.7973    0.8315 H   0  0  0  0  0  0  0  0  0  0  0  0
    2.9026    1.9304   -2.2517 H   0  0  0  0  0  0  0  0  0  0  0  0
    2.1435    0.6689   -1.2389 H   0  0  0  0  0  0  0  0  0  0  0  0
    3.8725    3.9935   -0.8897 H   0  0  0  0  0  0  0  0  0  0  0  0
    3.7545    3.8543    0.8826 H   0  0  0  0  0  0  0  0  0  0  0  0
    5.0579    1.7301   -1.4702 H   0  0  0  0  0  0  0  0  0  0  0  0
    5.4505    2.1041    0.1850 H   0  0  0  0  0  0  0  0  0  0  0  0
   -2.9851    0.8335   -1.4315 H   0  0  0  0  0  0  0  0  0  0  0  0
   -3.5077    1.5157    3.0898 H   0  0  0  0  0  0  0  0  0  0  0  0
    5.4535    0.4708    1.9628 H   0  0  0  0  0  0  0  0  0  0  0  0
    4.3156   -0.6068   -2.0552 H   0  0  0  0  0  0  0  0  0  0  0  0
   -2.4970    3.7988    2.6101 H   0  0  0  0  0  0  0  0  0  0  0  0
   -0.9688    3.6904    1.7369 H   0  0  0  0  0  0  0  0  0  0  0  0
   -1.2136    2.7155    3.1888 H   0  0  0  0  0  0  0  0  0  0  0  0
   -1.0865   -0.9096    1.3166 H   0  0  0  0  0  0  0  0  0  0  0  0
   -1.7340   -0.4700   -2.9131 H   0  0  0  0  0  0  0  0  0  0  0  0
   -5.7187    0.4576    2.8440 H   0  0  0  0  0  0  0  0  0  0  0  0
   -5.7672   -1.0283    1.9094 H   0  0  0  0  0  0  0  0  0  0  0  0
   -4.6507   -0.8927    3.2759 H   0  0  0  0  0  0  0  0  0  0  0  0
    5.6774   -1.9210    2.5321 H   0  0  0  0  0  0  0  0  0  0  0  0
    4.5377   -2.9939   -1.4696 H   0  0  0  0  0  0  0  0  0  0  0  0
   -0.0023   -2.1689   -3.3599 H   0  0  0  0  0  0  0  0  0  0  0  0
    5.2203   -3.6582    0.8211 H   0  0  0  0  0  0  0  0  0  0  0  0
    1.1938   -3.2467   -1.5156 H   0  0  0  0  0  0  0  0  0  0  0  0
   -5.2699   -2.3434   -2.6705 H   0  0  0  0  0  0  0  0  0  0  0  0
   -6.7257   -1.8204   -1.7490 H   0  0  0  0  0  0  0  0  0  0  0  0
   -6.2007   -0.9205   -3.1898 H   0  0  0  0  0  0  0  0  0  0  0  0
  1 10  1  0  0  0  0
  1 17  1  0  0  0  0
  2 17  2  0  0  0  0
  3 28  1  0  0  0  0
  3 36  1  0  0  0  0
  4 28  2  0  0  0  0
  5  9  1  0  0  0  0
  6  9  2  0  0  0  0
  7 12  1  0  0  0  0
  7 13  1  0  0  0  0
  7 14  1  0  0  0  0
  8 20  1  0  0  0  0
  8 22  1  0  0  0  0
  8 47  1  0  0  0  0
  9 32  1  0  0  0  0
 10 11  1  0  0  0  0
 10 12  1  0  0  0  0
 10 37  1  0  0  0  0
 11 13  1  0  0  0  0
 11 38  1  0  0  0  0
 11 39  1  0  0  0  0
 12 40  1  0  0  0  0
 12 41  1  0  0  0  0
 13 42  1  0  0  0  0
 13 43  1  0  0  0  0
 14 18  1  0  0  0  0
 14 44  1  0  0  0  0
 14 45  1  0  0  0  0
 15 16  1  0  0  0  0
 15 19  1  0  0  0  0
 15 21  1  0  0  0  0
 15 46  1  0  0  0  0
 16 17  1  0  0  0  0
 16 20  2  0  0  0  0
 18 23  2  0  0  0  0
 18 24  1  0  0  0  0
 19 22  2  0  0  0  0
 19 28  1  0  0  0  0
 20 25  1  0  0  0  0
 21 26  2  0  0  0  0
 21 27  1  0  0  0  0
 22 29  1  0  0  0  0
 23 30  1  0  0  0  0
 23 48  1  0  0  0  0
 24 31  2  0  0  0  0
 24 49  1  0  0  0  0
 25 50  1  0  0  0  0
 25 51  1  0  0  0  0
 25 52  1  0  0  0  0
 26 32  1  0  0  0  0
 26 53  1  0  0  0  0
 27 33  2  0  0  0  0
 27 54  1  0  0  0  0
 29 55  1  0  0  0  0
 29 56  1  0  0  0  0
 29 57  1  0  0  0  0
 30 34  2  0  0  0  0
 30 58  1  0  0  0  0
 31 34  1  0  0  0  0
 31 59  1  0  0  0  0
 32 35  2  0  0  0  0
 33 35  1  0  0  0  0
 33 60  1  0  0  0  0
 34 61  1  0  0  0  0
 35 62  1  0  0  0  0
 36 63  1  0  0  0  0
 36 64  1  0  0  0  0
 36 65  1  0  0  0  0
M  CHG  2   5  -1   9   1
M  END
> <PUBCHEM_COMPOUND_CID>
443869

> <PUBCHEM_CONFORMER_RMSD>
1

> <PUBCHEM_CONFORMER_DIVERSEORDER>
1
8
42
201
122
86
188
146
99
115
88
63
128
191
34
80
36
151
167
147
77
149
123
49
93
178
205
141
187
134
177
64
173
186
161
148
194
142
89
62
48
195
176
103
84
171
196
45
51
165
136
96
139
87
101
166
163
125
23
97
107
133
94
53
159
153
132
203
174
59
44
183
130
73
169
152
26
83
95
118
16
29
15
70
104
135
18
67
76
55
127
202
162
199
164
39
109
41
182
204
106
57
179
180
124
100
61
74
145
200
140
27
172
40
85
58
50
189
79
91
156
65
32
54
14
131
198
21
3
175
72
78
150
81
160
60
138
112
129
120
190
197
43
119
11
113
28
6
158
102
10
192
17
82
35
144
114
143
92
193
38
56
111
33
46
108
181
155
22
184
52
5
170
2
90
71
9
105
121
154
185
12
137
110
20
47
66
68
31
25
37
19
126
98
157
4
168
7
116
117
30
13
69
24
75

> <PUBCHEM_MMFF94_PARTIAL_CHARGES>
45
1 -0.43
10 0.28
12 0.27
13 0.27
14 0.41
15 0.42
16 -0.12
17 0.71
18 -0.14
19 -0.12
2 -0.57
20 -0.04
21 -0.14
22 -0.04
23 -0.15
24 -0.15
25 0.14
26 -0.15
27 -0.15
28 0.71
29 0.14
3 -0.43
30 -0.15
31 -0.15
32 0.13
33 -0.15
34 -0.15
35 -0.15
36 0.28
4 -0.57
47 0.4
48 0.15
49 0.15
5 -0.52
53 0.15
54 0.15
58 0.15
59 0.15
6 -0.52
60 0.15
61 0.15
62 0.15
7 -0.81
8 -0.6
9 0.91

> <PUBCHEM_EFFECTIVE_ROTOR_COUNT>
10.4

> <PUBCHEM_PHARMACOPHORE_FEATURES>
12
1 2 acceptor
1 4 acceptor
1 5 acceptor
1 5 anion
1 6 acceptor
1 7 cation
1 8 cation
1 8 donor
5 7 10 11 12 13 rings
6 18 23 24 30 31 34 rings
6 21 26 27 32 33 35 rings
6 8 15 16 19 20 22 rings

> <PUBCHEM_HEAVY_ATOM_COUNT>
36

> <PUBCHEM_ATOM_DEF_STEREO_COUNT>
2

> <PUBCHEM_ATOM_UDEF_STEREO_COUNT>
0

> <PUBCHEM_BOND_DEF_STEREO_COUNT>
0

> <PUBCHEM_BOND_UDEF_STEREO_COUNT>
0

> <PUBCHEM_ISOTOPIC_ATOM_COUNT>
0

> <PUBCHEM_COMPONENT_COUNT>
1

> <PUBCHEM_CACTVS_TAUTO_COUNT>
3

> <PUBCHEM_CONFORMER_ID>
0006C5DD00000001

> <PUBCHEM_MMFF94_ENERGY>
99.5139

> <PUBCHEM_FEATURE_SELFOVERLAP>
60.979

> <PUBCHEM_SHAPE_FINGERPRINT>
10928967 22 18189910720910546498
11135926 11 18117566343390923948
11578080 2 17459751420019494709
12422481 6 18199764552144152441
13782708 43 17240770648448958459
14784336 7 17914327129185583457
15420108 30 17768258916206446849
20771845 140 16988016023774048199
21796203 349 18046658675675865456
3493558 16 17629782092434812786
392239 28 18261119555737360802
469060 322 18261951843458555714
581034 39 17203609268274711423
6287921 2 17844543109981470534

> <PUBCHEM_SHAPE_MULTIPOLES>
690.7
12.05
4.68
2.21
2.91
2.14
0.44
-5.27
1.53
2.88
0.07
-2.12
-0.49
-2.63

> <PUBCHEM_SHAPE_SELFOVERLAP>
1488.801

> <PUBCHEM_SHAPE_VOLUME>
381

> <PUBCHEM_COORDINATE_TYPE>
2
5
10

$$$$