44286259
  -OEChem-03242010093D

 52 53  0     1  0  0  0  0  0999 V2000
   -3.8109    1.4630    0.5891 O   0  0  0  0  0  0  0  0  0  0  0  0
    1.6624   -0.0137    0.1922 O   0  0  0  0  0  0  0  0  0  0  0  0
   -1.8677    4.8137   -1.1109 O   0  0  0  0  0  0  0  0  0  0  0  0
    0.1061    0.3956    1.8153 O   0  0  0  0  0  0  0  0  0  0  0  0
   -2.3386    4.1793    1.0559 O   0  0  0  0  0  0  0  0  0  0  0  0
   -0.5824   -0.0930   -0.3521 N   0  0  0  0  0  0  0  0  0  0  0  0
   -2.0033    0.0000   -0.0815 C   0  0  2  0  0  0  0  0  0  0  0  0
   -2.4011    1.4348    0.3359 C   0  0  1  0  0  0  0  0  0  0  0  0
   -2.4004   -1.0926    0.9272 C   0  0  0  0  0  0  0  0  0  0  0  0
   -2.0904    2.5145   -0.7080 C   0  0  0  0  0  0  0  0  0  0  0  0
   -2.4336   -2.4832    0.3444 C   0  0  0  0  0  0  0  0  0  0  0  0
   -0.2056   -0.4201   -1.7268 C   0  0  0  0  0  0  0  0  0  0  0  0
    0.3771    0.1188    0.6480 C   0  0  0  0  0  0  0  0  0  0  0  0
   -2.1219    3.9102   -0.1174 C   0  0  0  0  0  0  0  0  0  0  0  0
   -3.6110   -2.9753   -0.2189 C   0  0  0  0  0  0  0  0  0  0  0  0
   -1.2869   -3.2772    0.3688 C   0  0  0  0  0  0  0  0  0  0  0  0
   -3.6417   -4.2616   -0.7580 C   0  0  0  0  0  0  0  0  0  0  0  0
   -1.3177   -4.5634   -0.1702 C   0  0  0  0  0  0  0  0  0  0  0  0
   -2.4950   -5.0555   -0.7339 C   0  0  0  0  0  0  0  0  0  0  0  0
    2.6995    0.1895    1.1589 C   0  0  0  0  0  0  0  0  0  0  0  0
    4.0321    0.0074    0.4936 C   0  0  0  0  0  0  0  0  0  0  0  0
   -1.8618    6.1871   -0.7081 C   0  0  0  0  0  0  0  0  0  0  0  0
    4.6272   -1.2536    0.4577 C   0  0  0  0  0  0  0  0  0  0  0  0
    4.6757    1.0994   -0.0890 C   0  0  0  0  0  0  0  0  0  0  0  0
    5.8660   -1.4229   -0.1609 C   0  0  0  0  0  0  0  0  0  0  0  0
    5.9145    0.9300   -0.7075 C   0  0  0  0  0  0  0  0  0  0  0  0
    6.5095   -0.3312   -0.7437 C   0  0  0  0  0  0  0  0  0  0  0  0
   -2.5457   -0.2099   -1.0151 H   0  0  0  0  0  0  0  0  0  0  0  0
   -1.9176    1.6823    1.2868 H   0  0  0  0  0  0  0  0  0  0  0  0
   -1.7690   -1.0951    1.8223 H   0  0  0  0  0  0  0  0  0  0  0  0
   -3.4069   -0.8832    1.3133 H   0  0  0  0  0  0  0  0  0  0  0  0
   -1.0839    2.3789   -1.1156 H   0  0  0  0  0  0  0  0  0  0  0  0
   -2.8250    2.4740   -1.5203 H   0  0  0  0  0  0  0  0  0  0  0  0
   -0.6071    0.3479   -2.3944 H   0  0  0  0  0  0  0  0  0  0  0  0
   -0.6404   -1.3881   -1.9919 H   0  0  0  0  0  0  0  0  0  0  0  0
    0.8746   -0.4749   -1.8730 H   0  0  0  0  0  0  0  0  0  0  0  0
   -4.0333    2.3464    0.9288 H   0  0  0  0  0  0  0  0  0  0  0  0
   -4.5104   -2.3658   -0.2466 H   0  0  0  0  0  0  0  0  0  0  0  0
   -0.3638   -2.9087    0.8079 H   0  0  0  0  0  0  0  0  0  0  0  0
   -4.5580   -4.6446   -1.1974 H   0  0  0  0  0  0  0  0  0  0  0  0
   -0.4251   -5.1819   -0.1508 H   0  0  0  0  0  0  0  0  0  0  0  0
   -2.5188   -6.0568   -1.1538 H   0  0  0  0  0  0  0  0  0  0  0  0
    2.5854   -0.5289    1.9802 H   0  0  0  0  0  0  0  0  0  0  0  0
    2.6211    1.2001    1.5786 H   0  0  0  0  0  0  0  0  0  0  0  0
   -1.6486    6.7988   -1.5888 H   0  0  0  0  0  0  0  0  0  0  0  0
   -1.0795    6.3597    0.0372 H   0  0  0  0  0  0  0  0  0  0  0  0
   -2.8421    6.4700   -0.3131 H   0  0  0  0  0  0  0  0  0  0  0  0
    4.1346   -2.1122    0.9061 H   0  0  0  0  0  0  0  0  0  0  0  0
    4.2212    2.0864   -0.0694 H   0  0  0  0  0  0  0  0  0  0  0  0
    6.3291   -2.4049   -0.1895 H   0  0  0  0  0  0  0  0  0  0  0  0
    6.4155    1.7799   -1.1617 H   0  0  0  0  0  0  0  0  0  0  0  0
    7.4738   -0.4630   -1.2256 H   0  0  0  0  0  0  0  0  0  0  0  0
  1  8  1  0  0  0  0
  1 37  1  0  0  0  0
  2 13  1  0  0  0  0
  2 20  1  0  0  0  0
  3 14  1  0  0  0  0
  3 22  1  0  0  0  0
  4 13  2  0  0  0  0
  5 14  2  0  0  0  0
  6  7  1  0  0  0  0
  6 12  1  0  0  0  0
  6 13  1  0  0  0  0
  7  8  1  0  0  0  0
  7  9  1  0  0  0  0
  7 28  1  0  0  0  0
  8 10  1  0  0  0  0
  8 29  1  0  0  0  0
  9 11  1  0  0  0  0
  9 30  1  0  0  0  0
  9 31  1  0  0  0  0
 10 14  1  0  0  0  0
 10 32  1  0  0  0  0
 10 33  1  0  0  0  0
 11 15  2  0  0  0  0
 11 16  1  0  0  0  0
 12 34  1  0  0  0  0
 12 35  1  0  0  0  0
 12 36  1  0  0  0  0
 15 17  1  0  0  0  0
 15 38  1  0  0  0  0
 16 18  2  0  0  0  0
 16 39  1  0  0  0  0
 17 19  2  0  0  0  0
 17 40  1  0  0  0  0
 18 19  1  0  0  0  0
 18 41  1  0  0  0  0
 19 42  1  0  0  0  0
 20 21  1  0  0  0  0
 20 43  1  0  0  0  0
 20 44  1  0  0  0  0
 21 23  2  0  0  0  0
 21 24  1  0  0  0  0
 22 45  1  0  0  0  0
 22 46  1  0  0  0  0
 22 47  1  0  0  0  0
 23 25  1  0  0  0  0
 23 48  1  0  0  0  0
 24 26  2  0  0  0  0
 24 49  1  0  0  0  0
 25 27  2  0  0  0  0
 25 50  1  0  0  0  0
 26 27  1  0  0  0  0
 26 51  1  0  0  0  0
 27 52  1  0  0  0  0
M  END
> <PUBCHEM_COMPOUND_CID>
44286259

> <PUBCHEM_CONFORMER_RMSD>
1.2

> <PUBCHEM_CONFORMER_DIVERSEORDER>
1
145
16
72
91
7
57
150
67
36
77
127
26
70
148
44
24
43
107
104
12
54
92
139
106
75
47
130
117
112
95
4
82
94
58
115
46
109
151
102
76
71
105
25
144
124
50
51
132
101
66
32
93
133
108
37
88
40
34
31
74
89
134
123
116
9
80
42
69
141
49
33
135
90
87
103
96
29
119
15
138
65
110
64
99
21
22
8
45
56
63
137
39
19
68
98
149
113
86
100
97
18
118
131
11
3
147
10
53
60
111
83
62
38
48
142
17
27
84
78
23
146
81
125
121
85
136
5
2
52
35
143
120
13
6
20
59
79
128
30
126
129
114
61
28
55
140
73
41
14
122

> <PUBCHEM_MMFF94_PARTIAL_CHARGES>
38
1 -0.68
10 0.06
11 -0.14
12 0.3
13 0.78
14 0.66
15 -0.15
16 -0.15
17 -0.15
18 -0.15
19 -0.15
2 -0.43
20 0.42
21 -0.14
22 0.28
23 -0.15
24 -0.15
25 -0.15
26 -0.15
27 -0.15
3 -0.43
37 0.4
38 0.15
39 0.15
4 -0.57
40 0.15
41 0.15
42 0.15
48 0.15
49 0.15
5 -0.57
50 0.15
51 0.15
52 0.15
6 -0.66
7 0.3
8 0.28
9 0.14

> <PUBCHEM_EFFECTIVE_ROTOR_COUNT>
11

> <PUBCHEM_PHARMACOPHORE_FEATURES>
6
1 1 acceptor
1 1 donor
1 4 acceptor
1 5 acceptor
6 11 15 16 17 18 19 rings
6 21 23 24 25 26 27 rings

> <PUBCHEM_HEAVY_ATOM_COUNT>
27

> <PUBCHEM_ATOM_DEF_STEREO_COUNT>
2

> <PUBCHEM_ATOM_UDEF_STEREO_COUNT>
0

> <PUBCHEM_BOND_DEF_STEREO_COUNT>
0

> <PUBCHEM_BOND_UDEF_STEREO_COUNT>
0

> <PUBCHEM_ISOTOPIC_ATOM_COUNT>
0

> <PUBCHEM_COMPONENT_COUNT>
1

> <PUBCHEM_CACTVS_TAUTO_COUNT>
1

> <PUBCHEM_CONFORMER_ID>
02A3C13300000001

> <PUBCHEM_MMFF94_ENERGY>
64.3678

> <PUBCHEM_FEATURE_SELFOVERLAP>
30.447

> <PUBCHEM_SHAPE_FINGERPRINT>
10319688 140 16897928864937875715
11049842 53 17686092425241918988
11056379 131 18411142441717436126
11552529 35 18408317809299016934
11763715 3 18118421754487942788
12788726 201 18261100915716381386
13540713 5 17335639978075646155
13690498 29 18339652221707895606
13757389 114 18410584958941021213
13911987 19 18190444005783798469
14251757 5 18411136931015750784
14508225 48 18195799902578192191
14790565 3 17977666403226330842
14849402 71 16466995537692032553
14910302 57 18271517714990567818
14955137 171 18045512056504018891
15230672 131 18048323246070739022
15250474 111 18335128800923070570
15664445 248 17546734111152372404
15876981 60 18261682579121931996
15961568 22 17833541672250777448
17980427 26 17404010432134620605
18785283 64 17327456922197280713
20101258 96 18266185104695916712
20775438 99 17549492678515675029
21120745 212 18265906923969892452
21796203 349 17684973389014880531
23559900 14 17620465144697661803
24771750 20 17617389376518396815
255183 313 18198926776488001235
4394409 98 17617673051136483598
6700243 42 17912402902406651908
9981440 41 18049157766077747273

> <PUBCHEM_SHAPE_MULTIPOLES>
521.32
11.18
8.06
1.15
25.13
9.29
0.01
-7.45
-1.65
-13.84
-2.37
-0.02
0.24
-0.59

> <PUBCHEM_SHAPE_SELFOVERLAP>
1079.98

> <PUBCHEM_SHAPE_VOLUME>
297.1

> <PUBCHEM_COORDINATE_TYPE>
2
5
10

$$$$