4008
  -OEChem-03242010103D

 83 87  0     1  0  0  0  0  0999 V2000
    1.9015    2.4177   -1.3421 O   0  0  0  0  0  0  0  0  0  0  0  0
    3.5662    1.8189   -2.8353 O   0  0  0  0  0  0  0  0  0  0  0  0
    6.5533   -1.7418   -0.4639 O   0  0  0  0  0  0  0  0  0  0  0  0
    5.7417   -2.4361    1.5901 O   0  0  0  0  0  0  0  0  0  0  0  0
   -0.8187   -2.3236    1.9020 O   0  5  0  0  0  0  0  0  0  0  0  0
    0.4340   -0.7534    2.7875 O   0  0  0  0  0  0  0  0  0  0  0  0
   -3.3467    0.9384   -0.4005 N   0  0  0  0  0  0  0  0  0  0  0  0
   -0.9415    2.3623   -1.1394 N   0  0  0  0  0  0  0  0  0  0  0  0
    4.8783    1.8705    1.5732 N   0  0  0  0  0  0  0  0  0  0  0  0
    0.1840   -1.5700    1.8681 N   0  3  0  0  0  0  0  0  0  0  0  0
   -2.6602    1.8201    0.5516 C   0  0  0  0  0  0  0  0  0  0  0  0
   -2.3874    0.3702   -1.3555 C   0  0  0  0  0  0  0  0  0  0  0  0
   -1.8997    2.9296   -0.1828 C   0  0  0  0  0  0  0  0  0  0  0  0
   -1.6281    1.4799   -2.0908 C   0  0  0  0  0  0  0  0  0  0  0  0
   -4.0699   -0.1203    0.3010 C   0  0  0  0  0  0  0  0  0  0  0  0
   -0.2201    3.4218   -1.8417 C   0  0  0  0  0  0  0  0  0  0  0  0
   -5.2760    0.4087    1.0631 C   0  0  0  0  0  0  0  0  0  0  0  0
   -4.4418   -1.2753   -0.6171 C   0  0  0  0  0  0  0  0  0  0  0  0
    1.0842    2.8929   -2.4168 C   0  0  0  0  0  0  0  0  0  0  0  0
   -5.7012   -0.2318    2.2269 C   0  0  0  0  0  0  0  0  0  0  0  0
   -5.6597   -1.2612   -1.2970 C   0  0  0  0  0  0  0  0  0  0  0  0
   -5.9565    1.5338    0.5978 C   0  0  0  0  0  0  0  0  0  0  0  0
   -3.5654   -2.3482   -0.7785 C   0  0  0  0  0  0  0  0  0  0  0  0
    4.2534    0.0032   -0.4640 C   0  0  1  0  0  0  0  0  0  0  0  0
    3.8160    1.4720   -0.5040 C   0  0  0  0  0  0  0  0  0  0  0  0
    5.1962   -0.3070    0.7029 C   0  0  0  0  0  0  0  0  0  0  0  0
    3.1034    1.9145   -1.7136 C   0  0  0  0  0  0  0  0  0  0  0  0
    4.1269    2.3232    0.5001 C   0  0  0  0  0  0  0  0  0  0  0  0
    3.0466   -0.8884   -0.3984 C   0  0  0  0  0  0  0  0  0  0  0  0
   -6.8069    0.2529    2.9256 C   0  0  0  0  0  0  0  0  0  0  0  0
   -6.0008   -2.3200   -2.1386 C   0  0  0  0  0  0  0  0  0  0  0  0
   -7.0623    2.0185    1.2965 C   0  0  0  0  0  0  0  0  0  0  0  0
   -3.9066   -3.4069   -1.6201 C   0  0  0  0  0  0  0  0  0  0  0  0
    5.4425    0.6086    1.6669 C   0  0  0  0  0  0  0  0  0  0  0  0
   -7.4874    1.3782    2.4604 C   0  0  0  0  0  0  0  0  0  0  0  0
   -5.1243   -3.3929   -2.3002 C   0  0  0  0  0  0  0  0  0  0  0  0
    3.7157    3.7687    0.5770 C   0  0  0  0  0  0  0  0  0  0  0  0
    2.1839   -0.8158    0.6953 C   0  0  0  0  0  0  0  0  0  0  0  0
    2.7886   -1.7891   -1.4317 C   0  0  0  0  0  0  0  0  0  0  0  0
    5.8504   -1.6256    0.6886 C   0  0  0  0  0  0  0  0  0  0  0  0
    6.3078    0.3890    2.8784 C   0  0  0  0  0  0  0  0  0  0  0  0
    1.0629   -1.6438    0.7554 C   0  0  0  0  0  0  0  0  0  0  0  0
    1.6677   -2.6172   -1.3715 C   0  0  0  0  0  0  0  0  0  0  0  0
    0.8049   -2.5444   -0.2780 C   0  0  0  0  0  0  0  0  0  0  0  0
    7.2510   -2.9809   -0.6268 C   0  0  0  0  0  0  0  0  0  0  0  0
   -1.9534    1.2507    1.1717 H   0  0  0  0  0  0  0  0  0  0  0  0
   -3.3650    2.3046    1.2358 H   0  0  0  0  0  0  0  0  0  0  0  0
   -1.6589   -0.2816   -0.8558 H   0  0  0  0  0  0  0  0  0  0  0  0
   -2.8840   -0.1909   -2.1538 H   0  0  0  0  0  0  0  0  0  0  0  0
   -2.6122    3.5943   -0.6901 H   0  0  0  0  0  0  0  0  0  0  0  0
   -1.3673    3.5294    0.5655 H   0  0  0  0  0  0  0  0  0  0  0  0
   -2.3279    2.0490   -2.7183 H   0  0  0  0  0  0  0  0  0  0  0  0
   -0.9099    0.9961   -2.7615 H   0  0  0  0  0  0  0  0  0  0  0  0
   -3.3953   -0.5452    1.0618 H   0  0  0  0  0  0  0  0  0  0  0  0
   -0.8314    3.8864   -2.6249 H   0  0  0  0  0  0  0  0  0  0  0  0
    0.0448    4.2133   -1.1279 H   0  0  0  0  0  0  0  0  0  0  0  0
    0.9226    2.0934   -3.1474 H   0  0  0  0  0  0  0  0  0  0  0  0
    1.6088    3.7148   -2.9190 H   0  0  0  0  0  0  0  0  0  0  0  0
   -5.1808   -1.1101    2.5996 H   0  0  0  0  0  0  0  0  0  0  0  0
   -6.3615   -0.4382   -1.2191 H   0  0  0  0  0  0  0  0  0  0  0  0
   -5.6636    2.0469   -0.3140 H   0  0  0  0  0  0  0  0  0  0  0  0
   -2.6190   -2.3840   -0.2483 H   0  0  0  0  0  0  0  0  0  0  0  0
    4.8081   -0.1788   -1.3951 H   0  0  0  0  0  0  0  0  0  0  0  0
   -7.1384   -0.2461    3.8315 H   0  0  0  0  0  0  0  0  0  0  0  0
   -6.9467   -2.3071   -2.6723 H   0  0  0  0  0  0  0  0  0  0  0  0
   -7.5949    2.8921    0.9322 H   0  0  0  0  0  0  0  0  0  0  0  0
   -3.2249   -4.2433   -1.7439 H   0  0  0  0  0  0  0  0  0  0  0  0
    5.0796    2.5299    2.3166 H   0  0  0  0  0  0  0  0  0  0  0  0
   -8.3491    1.7548    3.0037 H   0  0  0  0  0  0  0  0  0  0  0  0
   -5.3896   -4.2169   -2.9561 H   0  0  0  0  0  0  0  0  0  0  0  0
    4.5462    4.3826    0.9441 H   0  0  0  0  0  0  0  0  0  0  0  0
    3.4321    4.1882   -0.3921 H   0  0  0  0  0  0  0  0  0  0  0  0
    2.8742    3.8851    1.2675 H   0  0  0  0  0  0  0  0  0  0  0  0
    2.3925   -0.1100    1.4953 H   0  0  0  0  0  0  0  0  0  0  0  0
    3.4515   -1.8575   -2.2901 H   0  0  0  0  0  0  0  0  0  0  0  0
    5.6915    0.3812    3.7835 H   0  0  0  0  0  0  0  0  0  0  0  0
    6.8729   -0.5456    2.8469 H   0  0  0  0  0  0  0  0  0  0  0  0
    7.0413    1.1980    2.9701 H   0  0  0  0  0  0  0  0  0  0  0  0
    1.4669   -3.3182   -2.1764 H   0  0  0  0  0  0  0  0  0  0  0  0
   -0.0583   -3.2049   -0.2653 H   0  0  0  0  0  0  0  0  0  0  0  0
    7.7780   -2.9508   -1.5841 H   0  0  0  0  0  0  0  0  0  0  0  0
    6.5424   -3.8147   -0.6419 H   0  0  0  0  0  0  0  0  0  0  0  0
    7.9847   -3.1110    0.1745 H   0  0  0  0  0  0  0  0  0  0  0  0
  1 19  1  0  0  0  0
  1 27  1  0  0  0  0
  2 27  2  0  0  0  0
  3 40  1  0  0  0  0
  3 45  1  0  0  0  0
  4 40  2  0  0  0  0
  5 10  1  0  0  0  0
  6 10  2  0  0  0  0
  7 11  1  0  0  0  0
  7 12  1  0  0  0  0
  7 15  1  0  0  0  0
  8 13  1  0  0  0  0
  8 14  1  0  0  0  0
  8 16  1  0  0  0  0
  9 28  1  0  0  0  0
  9 34  1  0  0  0  0
  9 68  1  0  0  0  0
 10 42  1  0  0  0  0
 11 13  1  0  0  0  0
 11 46  1  0  0  0  0
 11 47  1  0  0  0  0
 12 14  1  0  0  0  0
 12 48  1  0  0  0  0
 12 49  1  0  0  0  0
 13 50  1  0  0  0  0
 13 51  1  0  0  0  0
 14 52  1  0  0  0  0
 14 53  1  0  0  0  0
 15 17  1  0  0  0  0
 15 18  1  0  0  0  0
 15 54  1  0  0  0  0
 16 19  1  0  0  0  0
 16 55  1  0  0  0  0
 16 56  1  0  0  0  0
 17 20  2  0  0  0  0
 17 22  1  0  0  0  0
 18 21  2  0  0  0  0
 18 23  1  0  0  0  0
 19 57  1  0  0  0  0
 19 58  1  0  0  0  0
 20 30  1  0  0  0  0
 20 59  1  0  0  0  0
 21 31  1  0  0  0  0
 21 60  1  0  0  0  0
 22 32  2  0  0  0  0
 22 61  1  0  0  0  0
 23 33  2  0  0  0  0
 23 62  1  0  0  0  0
 24 25  1  0  0  0  0
 24 26  1  0  0  0  0
 24 29  1  0  0  0  0
 24 63  1  0  0  0  0
 25 27  1  0  0  0  0
 25 28  2  0  0  0  0
 26 34  2  0  0  0  0
 26 40  1  0  0  0  0
 28 37  1  0  0  0  0
 29 38  2  0  0  0  0
 29 39  1  0  0  0  0
 30 35  2  0  0  0  0
 30 64  1  0  0  0  0
 31 36  2  0  0  0  0
 31 65  1  0  0  0  0
 32 35  1  0  0  0  0
 32 66  1  0  0  0  0
 33 36  1  0  0  0  0
 33 67  1  0  0  0  0
 34 41  1  0  0  0  0
 35 69  1  0  0  0  0
 36 70  1  0  0  0  0
 37 71  1  0  0  0  0
 37 72  1  0  0  0  0
 37 73  1  0  0  0  0
 38 42  1  0  0  0  0
 38 74  1  0  0  0  0
 39 43  2  0  0  0  0
 39 75  1  0  0  0  0
 41 76  1  0  0  0  0
 41 77  1  0  0  0  0
 41 78  1  0  0  0  0
 42 44  2  0  0  0  0
 43 44  1  0  0  0  0
 43 79  1  0  0  0  0
 44 80  1  0  0  0  0
 45 81  1  0  0  0  0
 45 82  1  0  0  0  0
 45 83  1  0  0  0  0
M  CHG  2   5  -1  10   1
M  END
> <PUBCHEM_COMPOUND_CID>
4008

> <PUBCHEM_CONFORMER_RMSD>
1.4

> <PUBCHEM_CONFORMER_DIVERSEORDER>
1
72
76
146
11
108
136
159
51
166
67
73
12
34
147
65
90
148
54
119
109
61
134
55
59
143
84
151
131
40
94
97
160
103
24
63
30
89
62
82
23
83
117
85
96
53
158
144
93
115
37
60
157
124
66
50
113
81
98
163
135
165
91
39
78
118
48
35
164
125
152
5
21
142
64
7
45
116
4
20
111
42
161
10
123
126
2
101
27
127
58
150
86
18
162
100
57
154
133
52
99
104
105
17
114
19
129
8
13
121
130
9
120
141
102
145
43
79
49
112
140
156
31
87
47
106
139
3
92
80
155
41
33
28
75
38
56
46
137
128
68
74
70
138
107
6
36
44
88
149
69
15
26
32
29
132
153
71
14
22
77
122
95
110
25
16

> <PUBCHEM_MMFF94_PARTIAL_CHARGES>
60
1 -0.43
10 0.91
11 0.27
12 0.27
13 0.27
14 0.27
15 0.56
16 0.27
17 -0.14
18 -0.14
19 0.28
2 -0.57
20 -0.15
21 -0.15
22 -0.15
23 -0.15
24 0.42
25 -0.12
26 -0.12
27 0.71
28 -0.04
29 -0.14
3 -0.43
30 -0.15
31 -0.15
32 -0.15
33 -0.15
34 -0.04
35 -0.15
36 -0.15
37 0.14
38 -0.15
39 -0.15
4 -0.57
40 0.71
41 0.14
42 0.13
43 -0.15
44 -0.15
45 0.28
5 -0.52
59 0.15
6 -0.52
60 0.15
61 0.15
62 0.15
64 0.15
65 0.15
66 0.15
67 0.15
68 0.4
69 0.15
7 -0.81
70 0.15
74 0.15
75 0.15
79 0.15
8 -0.81
80 0.15
9 -0.6

> <PUBCHEM_EFFECTIVE_ROTOR_COUNT>
13.6

> <PUBCHEM_PHARMACOPHORE_FEATURES>
14
1 2 acceptor
1 4 acceptor
1 5 acceptor
1 5 anion
1 6 acceptor
1 7 cation
1 8 cation
1 9 cation
1 9 donor
6 17 20 22 30 32 35 rings
6 18 21 23 31 33 36 rings
6 29 38 39 42 43 44 rings
6 7 8 11 12 13 14 rings
6 9 24 25 26 28 34 rings

> <PUBCHEM_HEAVY_ATOM_COUNT>
45

> <PUBCHEM_ATOM_DEF_STEREO_COUNT>
0

> <PUBCHEM_ATOM_UDEF_STEREO_COUNT>
1

> <PUBCHEM_BOND_DEF_STEREO_COUNT>
0

> <PUBCHEM_BOND_UDEF_STEREO_COUNT>
0

> <PUBCHEM_ISOTOPIC_ATOM_COUNT>
0

> <PUBCHEM_COMPONENT_COUNT>
1

> <PUBCHEM_CACTVS_TAUTO_COUNT>
3

> <PUBCHEM_CONFORMER_ID>
00000FA800000001

> <PUBCHEM_MMFF94_ENERGY>
132.8169

> <PUBCHEM_FEATURE_SELFOVERLAP>
71.132

> <PUBCHEM_SHAPE_FINGERPRINT>
10169797 241 17968089829401669880
10439779 11 18125436655557649460
11479125 193 15264501928390998712
12106331 60 17676487194667002828
12422481 6 18412541016007011796
13782708 43 15502376772688584025
15406563 5 17344918420855586144
1979834 28 18338811047450802317
20764821 26 17896334656009341878
392239 28 18336536196499997644
463206 1 18263087759451094309
57816373 69 18341897359499719684
6009941 240 16917067729082537083
6712543 237 18131063827140258764

> <PUBCHEM_SHAPE_MULTIPOLES>
870.94
19.57
4.51
2.9
6.23
0.42
0.59
3.33
9.92
-0.2
-2.32
1.33
-0.7
-3.76

> <PUBCHEM_SHAPE_SELFOVERLAP>
1877.874

> <PUBCHEM_SHAPE_VOLUME>
476.9

> <PUBCHEM_COORDINATE_TYPE>
2
5
10

$$$$