98
 OpenBabel03292021563D

121123  0  0  1  0  0  0  0  0999 V2000
   -0.7325    4.7811   -7.9175 C   0  0  0  0  0  0  0  0  0  0  0  0
   -1.7901    4.7688   -6.8261 C   0  0  0  0  0  0  0  0  0  0  0  0
   -2.5142    3.4112   -6.6374 C   0  0  1  0  0  0  0  0  0  0  0  0
   -3.2290    3.4198   -5.3770 O   0  0  0  0  0  0  0  0  0  0  0  0
   -2.5301    3.5141   -4.2019 C   0  0  0  0  0  0  0  0  0  0  0  0
   -1.3133    3.5509   -4.0938 O   0  0  0  0  0  0  0  0  0  0  0  0
   -3.5389    3.4988   -3.0727 C   0  0  2  0  0  0  0  0  0  0  0  0
   -3.3153    4.5316   -1.9795 C   0  0  0  0  0  0  0  0  0  0  0  0
   -3.7752    2.0166   -2.7018 C   0  0  1  0  0  0  0  0  0  0  0  0
   -2.7692    1.2433   -2.0696 O   0  0  0  0  0  0  0  0  0  0  0  0
   -2.1027    1.6185   -0.8713 C   0  0  1  0  0  0  0  0  0  0  0  0
   -1.1211    0.4804   -0.5598 C   0  0  0  0  0  0  0  0  0  0  0  0
   -0.2982    0.7322    0.7181 C   0  0  1  0  0  0  0  0  0  0  0  0
   -1.2092    0.5560    1.9454 C   0  0  0  0  0  0  0  0  0  0  0  0
    0.7090   -0.3092    0.7514 O   0  0  0  0  0  0  0  0  0  0  0  0
    1.5873   -0.3096    1.8716 C   0  0  0  0  0  0  0  0  0  0  0  0
    0.3451    2.1464    0.6387 C   0  0  1  0  0  0  0  0  0  0  0  0
    1.4667    2.1282   -0.2692 O   0  0  0  0  0  0  0  0  0  0  0  0
   -0.6191    3.2387    0.1400 C   0  0  2  0  0  0  0  0  0  0  0  0
   -1.5296    3.8167    1.2206 C   0  0  0  0  0  0  0  0  0  0  0  0
   -1.3463    2.8122   -1.0226 O   0  0  0  0  0  0  0  0  0  0  0  0
   -5.2568    1.7652   -2.3080 C   0  0  2  0  0  0  0  0  0  0  0  0
   -5.8747    2.6456   -1.2151 C   0  0  0  0  0  0  0  0  0  0  0  0
   -5.6932    0.2555   -2.3410 C   0  0  1  0  0  0  0  0  0  0  0  0
   -6.2903   -0.2019   -1.1137 O   0  0  0  0  0  0  0  0  0  0  0  0
   -5.5076   -0.1263    0.0771 C   0  0  2  0  0  0  0  0  0  0  0  0
   -4.4910   -1.1074    0.2658 O   0  0  0  0  0  0  0  0  0  0  0  0
   -4.8730   -2.3781    0.7769 C   0  0  2  0  0  0  0  0  0  0  0  0
   -5.1519   -3.3410   -0.3559 C   0  0  0  0  0  0  0  0  0  0  0  0
   -5.9341   -2.3613    1.8833 C   0  0  0  0  0  0  0  0  0  0  0  0
   -7.0868   -1.3515    1.6962 C   0  0  2  0  0  0  0  0  0  0  0  0
   -8.1758   -1.7746    0.7738 N   0  0  0  0  0  0  0  0  0  0  0  0
   -9.3111   -0.8382    0.8261 C   0  0  0  0  0  0  0  0  0  0  0  0
   -8.6971   -3.1182    1.0405 C   0  0  0  0  0  0  0  0  0  0  0  0
   -6.4208    0.0016    1.3160 C   0  0  1  0  0  0  0  0  0  0  0  0
   -5.6499    0.4906    2.4390 O   0  0  0  0  0  0  0  0  0  0  0  0
   -6.7100   -0.0285   -3.6200 C   0  0  2  0  0  0  0  0  0  0  0  0
   -7.4739    1.2247   -4.1257 C   0  0  0  0  0  0  0  0  0  0  0  0
   -7.6551   -1.0745   -3.3080 O   0  0  0  0  0  0  0  0  0  0  0  0
   -8.7989   -0.6585   -2.5702 C   0  0  0  0  0  0  0  0  0  0  0  0
   -5.8216   -0.6000   -4.7788 C   0  0  0  0  0  0  0  0  0  0  0  0
   -6.4026   -1.0015   -6.1635 C   0  0  1  0  0  0  0  0  0  0  0  0
   -7.8760   -0.7800   -6.4811 C   0  0  0  0  0  0  0  0  0  0  0  0
   -5.5329   -0.4576   -7.3173 C   0  0  0  0  0  0  0  0  0  0  0  0
   -4.9915   -1.2562   -8.0861 O   0  0  0  0  0  0  0  0  0  0  0  0
   -5.4461    1.0677   -7.5568 C   0  0  2  0  0  0  0  0  0  0  0  0
   -6.3897    1.4031   -8.7177 C   0  0  0  0  0  0  0  0  0  0  0  0
   -3.9612    1.5212   -7.7316 C   0  0  1  0  0  0  0  0  0  0  0  0
   -3.3901    0.9531   -8.9295 O   0  0  0  0  0  0  0  0  0  0  0  0
   -3.5924    3.0688   -7.7493 C   0  0  1  0  0  0  0  0  0  0  0  0
   -4.8024    4.0045   -7.6224 C   0  0  0  0  0  0  0  0  0  0  0  0
   -3.0328    3.3425   -9.0519 O   0  0  0  0  0  0  0  0  0  0  0  0
   -0.0866    5.6570   -7.7948 H   0  0  0  0  0  0  0  0  0  0  0  0
   -1.1729    4.8496   -8.9141 H   0  0  0  0  0  0  0  0  0  0  0  0
   -0.1001    3.8894   -7.8682 H   0  0  0  0  0  0  0  0  0  0  0  0
   -2.5068    5.5799   -6.9882 H   0  0  0  0  0  0  0  0  0  0  0  0
   -1.2814    5.0500   -5.8989 H   0  0  0  0  0  0  0  0  0  0  0  0
   -1.7636    2.6115   -6.6052 H   0  0  0  0  0  0  0  0  0  0  0  0
   -4.4624    3.8590   -3.5532 H   0  0  0  0  0  0  0  0  0  0  0  0
   -3.3003    4.0949   -0.9817 H   0  0  0  0  0  0  0  0  0  0  0  0
   -4.1612    5.2310   -1.9572 H   0  0  0  0  0  0  0  0  0  0  0  0
   -2.4175    5.1352   -2.1408 H   0  0  0  0  0  0  0  0  0  0  0  0
   -3.7519    1.5197   -3.6836 H   0  0  0  0  0  0  0  0  0  0  0  0
   -2.8564    1.7308   -0.0916 H   0  0  0  0  0  0  0  0  0  0  0  0
   -0.4294    0.3641   -1.4085 H   0  0  0  0  0  0  0  0  0  0  0  0
   -1.6430   -0.4834   -0.5058 H   0  0  0  0  0  0  0  0  0  0  0  0
   -1.4971   -0.4967    2.0542 H   0  0  0  0  0  0  0  0  0  0  0  0
   -2.1271    1.1409    1.8949 H   0  0  0  0  0  0  0  0  0  0  0  0
   -0.6919    0.8389    2.8680 H   0  0  0  0  0  0  0  0  0  0  0  0
    2.3871   -1.0301    1.6781 H   0  0  0  0  0  0  0  0  0  0  0  0
    1.0594   -0.6365    2.7719 H   0  0  0  0  0  0  0  0  0  0  0  0
    2.0487    0.6662    2.0411 H   0  0  0  0  0  0  0  0  0  0  0  0
    0.7664    2.4357    1.6075 H   0  0  0  0  0  0  0  0  0  0  0  0
    1.1116    2.0067   -1.1702 H   0  0  0  0  0  0  0  0  0  0  0  0
   -0.0014    4.0755   -0.2127 H   0  0  0  0  0  0  0  0  0  0  0  0
   -2.4190    3.2142    1.4089 H   0  0  0  0  0  0  0  0  0  0  0  0
   -1.8982    4.7978    0.9006 H   0  0  0  0  0  0  0  0  0  0  0  0
   -0.9913    3.9589    2.1627 H   0  0  0  0  0  0  0  0  0  0  0  0
   -5.7204    2.2124   -3.1820 H   0  0  0  0  0  0  0  0  0  0  0  0
   -5.2791    2.6994   -0.3034 H   0  0  0  0  0  0  0  0  0  0  0  0
   -6.8876    2.3066   -0.9689 H   0  0  0  0  0  0  0  0  0  0  0  0
   -5.9915    3.6739   -1.5744 H   0  0  0  0  0  0  0  0  0  0  0  0
   -4.8110   -0.3800   -2.4883 H   0  0  0  0  0  0  0  0  0  0  0  0
   -4.9197    0.7841    0.0499 H   0  0  0  0  0  0  0  0  0  0  0  0
   -3.9609   -2.7615    1.2552 H   0  0  0  0  0  0  0  0  0  0  0  0
   -6.0312   -3.0441   -0.9370 H   0  0  0  0  0  0  0  0  0  0  0  0
   -5.2890   -4.3594    0.0125 H   0  0  0  0  0  0  0  0  0  0  0  0
   -4.2996   -3.3477   -1.0530 H   0  0  0  0  0  0  0  0  0  0  0  0
   -5.4208   -2.0713    2.8125 H   0  0  0  0  0  0  0  0  0  0  0  0
   -6.2888   -3.3741    2.0984 H   0  0  0  0  0  0  0  0  0  0  0  0
   -7.5367   -1.2307    2.6929 H   0  0  0  0  0  0  0  0  0  0  0  0
  -10.1185   -1.1690    0.1617 H   0  0  0  0  0  0  0  0  0  0  0  0
   -9.0367    0.1594    0.4742 H   0  0  0  0  0  0  0  0  0  0  0  0
   -9.7239   -0.7467    1.8368 H   0  0  0  0  0  0  0  0  0  0  0  0
   -9.4676   -3.3764    0.3033 H   0  0  0  0  0  0  0  0  0  0  0  0
   -9.1419   -3.1955    2.0389 H   0  0  0  0  0  0  0  0  0  0  0  0
   -7.9321   -3.8904    0.9303 H   0  0  0  0  0  0  0  0  0  0  0  0
   -7.1750    0.7707    1.1335 H   0  0  0  0  0  0  0  0  0  0  0  0
   -4.7946    0.0229    2.4147 H   0  0  0  0  0  0  0  0  0  0  0  0
   -6.8539    1.8624   -4.7639 H   0  0  0  0  0  0  0  0  0  0  0  0
   -7.8440    1.8296   -3.2913 H   0  0  0  0  0  0  0  0  0  0  0  0
   -8.3676    0.9783   -4.6997 H   0  0  0  0  0  0  0  0  0  0  0  0
   -9.2682   -1.5449   -2.1375 H   0  0  0  0  0  0  0  0  0  0  0  0
   -9.5315   -0.1908   -3.2354 H   0  0  0  0  0  0  0  0  0  0  0  0
   -8.5526    0.0453   -1.7763 H   0  0  0  0  0  0  0  0  0  0  0  0
   -5.3828   -1.5314   -4.3856 H   0  0  0  0  0  0  0  0  0  0  0  0
   -4.9669    0.0673   -4.9308 H   0  0  0  0  0  0  0  0  0  0  0  0
   -6.2737   -2.0943   -6.2199 H   0  0  0  0  0  0  0  0  0  0  0  0
   -8.1176    0.2741   -6.6359 H   0  0  0  0  0  0  0  0  0  0  0  0
   -8.5313   -1.1926   -5.7101 H   0  0  0  0  0  0  0  0  0  0  0  0
   -8.1378   -1.2863   -7.4191 H   0  0  0  0  0  0  0  0  0  0  0  0
   -5.8309    1.5415   -6.6509 H   0  0  0  0  0  0  0  0  0  0  0  0
   -5.9078    1.3139   -9.6938 H   0  0  0  0  0  0  0  0  0  0  0  0
   -6.7857    2.4169   -8.6246 H   0  0  0  0  0  0  0  0  0  0  0  0
   -7.2626    0.7428   -8.7418 H   0  0  0  0  0  0  0  0  0  0  0  0
   -3.4016    1.0491   -6.9135 H   0  0  0  0  0  0  0  0  0  0  0  0
   -3.8700    1.3282   -9.6984 H   0  0  0  0  0  0  0  0  0  0  0  0
   -5.4311    3.7724   -6.7581 H   0  0  0  0  0  0  0  0  0  0  0  0
   -5.4065    3.9827   -8.5321 H   0  0  0  0  0  0  0  0  0  0  0  0
   -4.4951    5.0512   -7.5331 H   0  0  0  0  0  0  0  0  0  0  0  0
   -2.3814    2.6257   -9.2119 H   0  0  0  0  0  0  0  0  0  0  0  0
  1  2  1  0  0  0  0
  1 53  1  0  0  0  0
  1 54  1  0  0  0  0
  1 55  1  0  0  0  0
  2 56  1  0  0  0  0
  2 57  1  0  0  0  0
  3  4  1  0  0  0  0
  3 50  1  0  0  0  0
  3  2  1  0  0  0  0
  3 58  1  1  0  0  0
  4  5  1  0  0  0  0
  5  6  2  0  0  0  0
  5  7  1  0  0  0  0
  7  9  1  0  0  0  0
  7  8  1  0  0  0  0
  7 59  1  6  0  0  0
  8 60  1  0  0  0  0
  8 61  1  0  0  0  0
  8 62  1  0  0  0  0
  9 10  1  0  0  0  0
  9 22  1  0  0  0  0
  9 63  1  6  0  0  0
 11 12  1  0  0  0  0
 11 21  1  0  0  0  0
 11 10  1  0  0  0  0
 11 64  1  1  0  0  0
 12 13  1  0  0  0  0
 12 65  1  0  0  0  0
 12 66  1  0  0  0  0
 13 14  1  0  0  0  0
 13 15  1  1  0  0  0
 13 17  1  0  0  0  0
 14 67  1  0  0  0  0
 14 68  1  0  0  0  0
 14 69  1  0  0  0  0
 15 16  1  0  0  0  0
 16 70  1  0  0  0  0
 16 71  1  0  0  0  0
 16 72  1  0  0  0  0
 17 18  1  0  0  0  0
 17 19  1  0  0  0  0
 17 73  1  1  0  0  0
 18 74  1  0  0  0  0
 19 21  1  0  0  0  0
 19 20  1  0  0  0  0
 19 75  1  6  0  0  0
 20 76  1  0  0  0  0
 20 77  1  0  0  0  0
 20 78  1  0  0  0  0
 22 24  1  0  0  0  0
 22 23  1  0  0  0  0
 22 79  1  6  0  0  0
 23 80  1  0  0  0  0
 23 81  1  0  0  0  0
 23 82  1  0  0  0  0
 24 25  1  0  0  0  0
 24 37  1  0  0  0  0
 24 83  1  6  0  0  0
 25 26  1  0  0  0  0
 26 27  1  0  0  0  0
 26 35  1  0  0  0  0
 26 84  1  6  0  0  0
 27 28  1  0  0  0  0
 28 30  1  0  0  0  0
 28 29  1  0  0  0  0
 28 85  1  1  0  0  0
 29 86  1  0  0  0  0
 29 87  1  0  0  0  0
 29 88  1  0  0  0  0
 30 31  1  0  0  0  0
 30 89  1  0  0  0  0
 30 90  1  0  0  0  0
 31 35  1  0  0  0  0
 31 32  1  0  0  0  0
 31 91  1  1  0  0  0
 32 33  1  0  0  0  0
 32 34  1  0  0  0  0
 33 92  1  0  0  0  0
 33 93  1  0  0  0  0
 33 94  1  0  0  0  0
 34 95  1  0  0  0  0
 34 96  1  0  0  0  0
 34 97  1  0  0  0  0
 35 36  1  0  0  0  0
 35 98  1  6  0  0  0
 36 99  1  0  0  0  0
 37 41  1  0  0  0  0
 37 39  1  1  0  0  0
 37 38  1  0  0  0  0
 38100  1  0  0  0  0
 38101  1  0  0  0  0
 38102  1  0  0  0  0
 39 40  1  0  0  0  0
 40103  1  0  0  0  0
 40104  1  0  0  0  0
 40105  1  0  0  0  0
 41 42  1  0  0  0  0
 41106  1  0  0  0  0
 41107  1  0  0  0  0
 42 43  1  0  0  0  0
 42 44  1  0  0  0  0
 42108  1  6  0  0  0
 43109  1  0  0  0  0
 43110  1  0  0  0  0
 43111  1  0  0  0  0
 44 45  2  0  0  0  0
 44 46  1  0  0  0  0
 46 48  1  0  0  0  0
 46 47  1  0  0  0  0
 46112  1  1  0  0  0
 47113  1  0  0  0  0
 47114  1  0  0  0  0
 47115  1  0  0  0  0
 48 49  1  0  0  0  0
 48 50  1  0  0  0  0
 48116  1  1  0  0  0
 49117  1  0  0  0  0
 50 51  1  0  0  0  0
 50 52  1  6  0  0  0
 51118  1  0  0  0  0
 51119  1  0  0  0  0
 51120  1  0  0  0  0
 52121  1  0  0  0  0
M  END
>  <Energy>
307.5

$$$$