99
 OpenBabel03292021563D

197197  0  0  1  0  0  0  0  0999 V2000
    5.7634    0.1814   -6.5616 C   0  0  0  0  0  0  0  0  0  0  0  0
    7.2065    0.3765   -6.1575 C   0  0  0  0  0  0  0  0  0  0  0  0
    8.0254   -0.5425   -5.5993 C   0  0  0  0  0  0  0  0  0  0  0  0
    9.5524   -0.3276   -5.3544 C   0  0  0  0  0  0  0  0  0  0  0  0
   10.3805   -1.0354   -4.1639 C   0  0  1  0  0  0  0  0  0  0  0  0
    9.5046   -2.2247   -3.7324 C   0  0  0  0  0  0  0  0  0  0  0  0
   12.0676   -1.2134   -4.5278 C   0  0  0  0  0  0  0  0  0  0  0  0
   12.4667   -0.8655   -5.6455 O   0  0  0  0  0  0  0  0  0  0  0  0
   13.1806   -1.7098   -3.3740 C   0  0  1  0  0  0  0  0  0  0  0  0
   14.9773   -1.2610   -3.4804 C   0  0  0  0  0  0  0  0  0  0  0  0
   15.2164   -0.0526   -3.2868 O   0  0  0  0  0  0  0  0  0  0  0  0
   16.1755   -2.0858   -3.6850 N   0  0  0  0  0  0  0  0  0  0  0  0
   17.8565   -1.7014   -3.4029 C   0  0  1  0  0  0  0  0  0  0  0  0
   18.7623   -1.0017   -4.5467 C   0  0  0  0  0  0  0  0  0  0  0  0
   18.2125    0.2612   -5.2072 C   0  0  0  0  0  0  0  0  0  0  0  0
   20.1876   -0.5274   -4.0593 C   0  0  0  0  0  0  0  0  0  0  0  0
   18.8571   -2.7907   -2.4988 C   0  0  0  0  0  0  0  0  0  0  0  0
   18.4493   -3.1317   -1.3889 O   0  0  0  0  0  0  0  0  0  0  0  0
   20.1566   -3.2639   -2.9058 N   0  0  0  0  0  0  0  0  0  0  0  0
   20.2672   -3.7344   -4.2950 C   0  0  0  0  0  0  0  0  0  0  0  0
   21.1428   -4.0490   -2.0064 C   0  0  0  0  0  0  0  0  0  0  0  0
   22.2164   -3.9716   -0.7650 C   0  0  0  0  0  0  0  0  0  0  0  0
   22.7512   -5.0362   -0.4138 O   0  0  0  0  0  0  0  0  0  0  0  0
   22.4850   -2.8308   -0.0292 N   0  0  0  0  0  0  0  0  0  0  0  0
   22.8085   -1.6119   -0.7428 C   0  0  0  0  0  0  0  0  0  0  0  0
   22.8966   -2.9195    1.4371 C   0  0  1  0  0  0  0  0  0  0  0  0
   21.9903   -3.8185    2.2793 C   0  0  0  0  0  0  0  0  0  0  0  0
   20.4720   -3.7311    2.2485 C   0  0  0  0  0  0  0  0  0  0  0  0
   19.9033   -4.3704    1.0014 C   0  0  0  0  0  0  0  0  0  0  0  0
   19.8892   -4.4847    3.4462 C   0  0  0  0  0  0  0  0  0  0  0  0
   24.4414   -3.1463    1.8473 C   0  0  0  0  0  0  0  0  0  0  0  0
   25.3276   -2.6871    1.1069 O   0  0  0  0  0  0  0  0  0  0  0  0
   24.8841   -3.6091    3.0771 N   0  0  0  0  0  0  0  0  0  0  0  0
   24.3532   -4.6577    4.0272 C   0  0  1  0  0  0  0  0  0  0  0  0
   25.4005   -5.6846    4.5302 C   0  0  0  0  0  0  0  0  0  0  0  0
   24.7107   -6.8046    5.3359 C   0  0  0  0  0  0  0  0  0  0  0  0
   26.1682   -6.3428    3.3785 C   0  0  0  0  0  0  0  0  0  0  0  0
   23.4486   -4.1157    5.1912 C   0  0  0  0  0  0  0  0  0  0  0  0
   22.3103   -4.5822    5.3139 O   0  0  0  0  0  0  0  0  0  0  0  0
   23.9136   -3.1602    6.0998 N   0  0  0  0  0  0  0  0  0  0  0  0
   24.9254   -3.6008    7.0490 C   0  0  0  0  0  0  0  0  0  0  0  0
   22.8442   -2.3005    6.7010 C   0  0  1  0  0  0  0  0  0  0  0  0
   22.2973   -1.3199    5.6577 C   0  0  0  0  0  0  0  0  0  0  0  0
   23.3204   -0.3750    4.9969 C   0  0  0  0  0  0  0  0  0  0  0  0
   22.5799    0.5143    3.9910 C   0  0  0  0  0  0  0  0  0  0  0  0
   24.0460    0.5049    6.0164 C   0  0  0  0  0  0  0  0  0  0  0  0
   21.8410   -3.1087    7.6003 C   0  0  0  0  0  0  0  0  0  0  0  0
   22.2914   -3.8602    8.4802 O   0  0  0  0  0  0  0  0  0  0  0  0
   20.4835   -3.0601    7.5206 N   0  0  0  0  0  0  0  0  0  0  0  0
   19.5446   -2.2056    6.7781 C   0  0  1  0  0  0  0  0  0  0  0  0
   18.2564   -2.9726    6.5516 C   0  0  0  0  0  0  0  0  0  0  0  0
   19.4317   -0.8497    7.5378 C   0  0  0  0  0  0  0  0  0  0  0  0
   20.2305   -0.5387    8.4285 O   0  0  0  0  0  0  0  0  0  0  0  0
   18.6263    0.1654    7.0915 N   0  0  0  0  0  0  0  0  0  0  0  0
   17.1850    0.2524    7.3899 C   0  0  2  0  0  0  0  0  0  0  0  0
   16.7653   -0.4782    8.6647 C   0  0  0  0  0  0  0  0  0  0  0  0
   16.3067   -0.1098    6.1766 C   0  0  0  0  0  0  0  0  0  0  0  0
   15.5973   -1.1099    6.2213 O   0  0  0  0  0  0  0  0  0  0  0  0
   16.3693    0.7500    5.0733 N   0  0  0  0  0  0  0  0  0  0  0  0
   15.9459    2.1306    5.2869 C   0  0  0  0  0  0  0  0  0  0  0  0
   16.0674    0.2511    3.7103 C   0  0  1  0  0  0  0  0  0  0  0  0
   17.1918   -0.5562    3.0622 C   0  0  0  0  0  0  0  0  0  0  0  0
   16.8494   -0.9344    1.6111 C   0  0  0  0  0  0  0  0  0  0  0  0
   17.0934    0.1806    0.5963 C   0  0  0  0  0  0  0  0  0  0  0  0
   17.6417   -2.1557    1.2258 C   0  0  0  0  0  0  0  0  0  0  0  0
   14.5927   -0.1674    3.4410 C   0  0  0  0  0  0  0  0  0  0  0  0
   13.8596    0.7417    3.0277 O   0  0  0  0  0  0  0  0  0  0  0  0
   14.1020   -1.4409    3.7040 N   0  0  0  0  0  0  0  0  0  0  0  0
   14.9298   -2.5900    4.0560 C   0  0  0  0  0  0  0  0  0  0  0  0
   12.6489   -1.7566    3.5199 C   0  0  1  0  0  0  0  0  0  0  0  0
   11.7337   -0.6643    4.1139 C   0  0  0  0  0  0  0  0  0  0  0  0
   10.2391   -0.9883    4.2392 C   0  0  0  0  0  0  0  0  0  0  0  0
    9.9651   -2.0510    5.3004 C   0  0  0  0  0  0  0  0  0  0  0  0
    9.4930    0.3041    4.6037 C   0  0  0  0  0  0  0  0  0  0  0  0
   12.3313   -2.3655    2.1019 C   0  0  0  0  0  0  0  0  0  0  0  0
   11.7841   -3.4689    2.0219 O   0  0  0  0  0  0  0  0  0  0  0  0
   12.7419   -1.6663    0.9652 N   0  0  0  0  0  0  0  0  0  0  0  0
   11.9489   -0.4581    0.7323 C   0  0  0  0  0  0  0  0  0  0  0  0
   13.1582   -2.4018   -0.2869 C   0  0  1  0  0  0  0  0  0  0  0  0
   13.7841   -3.8575   -0.1833 C   0  0  0  0  0  0  0  0  0  0  0  0
   14.6704   -4.2822   -1.3789 C   0  0  0  0  0  0  0  0  0  0  0  0
   14.6735   -4.0769    1.0105 C   0  0  0  0  0  0  0  0  0  0  0  0
   12.0247   -2.6008   -1.3024 C   0  0  0  0  0  0  0  0  0  0  0  0
   10.8503   -2.8011   -0.9356 O   0  0  0  0  0  0  0  0  0  0  0  0
   12.4867   -2.8195   -2.6150 N   0  0  0  0  0  0  0  0  0  0  0  0
   11.8998   -3.9532   -3.3308 C   0  0  0  0  0  0  0  0  0  0  0  0
    5.5463    0.7861   -7.4528 H   0  0  0  0  0  0  0  0  0  0  0  0
    5.0764    0.5153   -5.7766 H   0  0  0  0  0  0  0  0  0  0  0  0
    5.5254   -0.8555   -6.8224 H   0  0  0  0  0  0  0  0  0  0  0  0
    7.6111    1.3510   -6.4187 H   0  0  0  0  0  0  0  0  0  0  0  0
    7.5861   -1.5207   -5.4009 H   0  0  0  0  0  0  0  0  0  0  0  0
   10.0215   -0.6168   -6.2985 H   0  0  0  0  0  0  0  0  0  0  0  0
    9.6988    0.7515   -5.2282 H   0  0  0  0  0  0  0  0  0  0  0  0
   10.3728   -0.3289   -3.3226 H   0  0  0  0  0  0  0  0  0  0  0  0
    9.4832   -3.0315   -4.4713 H   0  0  0  0  0  0  0  0  0  0  0  0
    8.4641   -1.9217   -3.5474 H   0  0  0  0  0  0  0  0  0  0  0  0
    9.7662   -2.6345   -2.7719 H   0  0  0  0  0  0  0  0  0  0  0  0
   12.9808   -0.8708   -2.6758 H   0  0  0  0  0  0  0  0  0  0  0  0
   16.0338   -3.0597   -3.9117 H   0  0  0  0  0  0  0  0  0  0  0  0
   17.7202   -0.8848   -2.6790 H   0  0  0  0  0  0  0  0  0  0  0  0
   18.9099   -1.7199   -5.3575 H   0  0  0  0  0  0  0  0  0  0  0  0
   18.2096    1.1070   -4.5109 H   0  0  0  0  0  0  0  0  0  0  0  0
   17.2204    0.1170   -5.6268 H   0  0  0  0  0  0  0  0  0  0  0  0
   18.8831    0.5509   -6.0340 H   0  0  0  0  0  0  0  0  0  0  0  0
   20.1198    0.3281   -3.3785 H   0  0  0  0  0  0  0  0  0  0  0  0
   20.8027   -0.2175   -4.9169 H   0  0  0  0  0  0  0  0  0  0  0  0
   20.8082   -1.2555   -3.5456 H   0  0  0  0  0  0  0  0  0  0  0  0
   21.1268   -3.2428   -4.7708 H   0  0  0  0  0  0  0  0  0  0  0  0
   19.3554   -3.5852   -4.8609 H   0  0  0  0  0  0  0  0  0  0  0  0
   20.4321   -4.8006   -4.2959 H   0  0  0  0  0  0  0  0  0  0  0  0
   21.8675   -4.4266   -2.7451 H   0  0  0  0  0  0  0  0  0  0  0  0
   20.5351   -4.9204   -1.7153 H   0  0  0  0  0  0  0  0  0  0  0  0
   21.8947   -1.0302   -0.8690 H   0  0  0  0  0  0  0  0  0  0  0  0
   23.2310   -1.8488   -1.7252 H   0  0  0  0  0  0  0  0  0  0  0  0
   23.5438   -1.0198   -0.1856 H   0  0  0  0  0  0  0  0  0  0  0  0
   22.7130   -1.8991    1.8038 H   0  0  0  0  0  0  0  0  0  0  0  0
   22.2300   -3.5194    3.2906 H   0  0  0  0  0  0  0  0  0  0  0  0
   22.2771   -4.8610    2.1251 H   0  0  0  0  0  0  0  0  0  0  0  0
   20.1790   -2.6809    2.3255 H   0  0  0  0  0  0  0  0  0  0  0  0
   20.4123   -5.3051    0.7510 H   0  0  0  0  0  0  0  0  0  0  0  0
   20.0158   -3.6542    0.1971 H   0  0  0  0  0  0  0  0  0  0  0  0
   18.8405   -4.5959    1.0786 H   0  0  0  0  0  0  0  0  0  0  0  0
   20.3019   -5.4978    3.5106 H   0  0  0  0  0  0  0  0  0  0  0  0
   18.8009   -4.5655    3.3748 H   0  0  0  0  0  0  0  0  0  0  0  0
   20.1162   -3.9594    4.3746 H   0  0  0  0  0  0  0  0  0  0  0  0
   25.8947   -3.4993    3.1338 H   0  0  0  0  0  0  0  0  0  0  0  0
   23.6900   -5.2603    3.4050 H   0  0  0  0  0  0  0  0  0  0  0  0
   26.1435   -5.2025    5.1684 H   0  0  0  0  0  0  0  0  0  0  0  0
   23.9771   -7.3368    4.7188 H   0  0  0  0  0  0  0  0  0  0  0  0
   24.1847   -6.4212    6.2147 H   0  0  0  0  0  0  0  0  0  0  0  0
   25.4393   -7.5383    5.6965 H   0  0  0  0  0  0  0  0  0  0  0  0
   25.4848   -6.8134    2.6641 H   0  0  0  0  0  0  0  0  0  0  0  0
   26.8405   -7.1199    3.7606 H   0  0  0  0  0  0  0  0  0  0  0  0
   26.7830   -5.6142    2.8431 H   0  0  0  0  0  0  0  0  0  0  0  0
   25.8751   -3.7481    6.5374 H   0  0  0  0  0  0  0  0  0  0  0  0
   24.6149   -4.5393    7.5186 H   0  0  0  0  0  0  0  0  0  0  0  0
   25.0879   -2.8471    7.8261 H   0  0  0  0  0  0  0  0  0  0  0  0
   23.3478   -1.6660    7.4440 H   0  0  0  0  0  0  0  0  0  0  0  0
   21.5601   -0.6717    6.1346 H   0  0  0  0  0  0  0  0  0  0  0  0
   21.7906   -1.8763    4.8627 H   0  0  0  0  0  0  0  0  0  0  0  0
   24.0642   -0.9637    4.4478 H   0  0  0  0  0  0  0  0  0  0  0  0
   21.8388    1.1467    4.4944 H   0  0  0  0  0  0  0  0  0  0  0  0
   22.0491   -0.0922    3.2498 H   0  0  0  0  0  0  0  0  0  0  0  0
   23.2762    1.1668    3.4568 H   0  0  0  0  0  0  0  0  0  0  0  0
   23.3354    1.0335    6.6616 H   0  0  0  0  0  0  0  0  0  0  0  0
   24.6665    1.2542    5.5140 H   0  0  0  0  0  0  0  0  0  0  0  0
   24.7085   -0.0885    6.6541 H   0  0  0  0  0  0  0  0  0  0  0  0
   20.0801   -3.6052    8.2737 H   0  0  0  0  0  0  0  0  0  0  0  0
   19.9536   -2.0011    5.7915 H   0  0  0  0  0  0  0  0  0  0  0  0
   17.6742   -3.1016    7.4654 H   0  0  0  0  0  0  0  0  0  0  0  0
   18.4626   -3.9769    6.1637 H   0  0  0  0  0  0  0  0  0  0  0  0
   17.6449   -2.4675    5.8076 H   0  0  0  0  0  0  0  0  0  0  0  0
   19.0477    1.0036    7.4763 H   0  0  0  0  0  0  0  0  0  0  0  0
   17.0106    1.3089    7.6050 H   0  0  0  0  0  0  0  0  0  0  0  0
   17.1209   -1.5089    8.7034 H   0  0  0  0  0  0  0  0  0  0  0  0
   15.6737   -0.5068    8.7616 H   0  0  0  0  0  0  0  0  0  0  0  0
   17.1701    0.0335    9.5449 H   0  0  0  0  0  0  0  0  0  0  0  0
   16.2853    2.5307    6.2408 H   0  0  0  0  0  0  0  0  0  0  0  0
   14.8516    2.1615    5.2766 H   0  0  0  0  0  0  0  0  0  0  0  0
   16.3408    2.7682    4.4907 H   0  0  0  0  0  0  0  0  0  0  0  0
   16.1334    1.1693    3.1020 H   0  0  0  0  0  0  0  0  0  0  0  0
   17.4378   -1.4376    3.6572 H   0  0  0  0  0  0  0  0  0  0  0  0
   18.1185    0.0351    3.0710 H   0  0  0  0  0  0  0  0  0  0  0  0
   15.7945   -1.2026    1.5314 H   0  0  0  0  0  0  0  0  0  0  0  0
   18.1222    0.5509    0.6451 H   0  0  0  0  0  0  0  0  0  0  0  0
   16.4121    1.0193    0.7587 H   0  0  0  0  0  0  0  0  0  0  0  0
   16.9202   -0.1881   -0.4227 H   0  0  0  0  0  0  0  0  0  0  0  0
   18.6805   -1.8902    1.0244 H   0  0  0  0  0  0  0  0  0  0  0  0
   17.2052   -2.5961    0.3315 H   0  0  0  0  0  0  0  0  0  0  0  0
   17.5964   -2.9222    2.0051 H   0  0  0  0  0  0  0  0  0  0  0  0
   15.8943   -2.3275    4.4570 H   0  0  0  0  0  0  0  0  0  0  0  0
   15.1500   -3.1613    3.1702 H   0  0  0  0  0  0  0  0  0  0  0  0
   14.4174   -3.2340    4.7749 H   0  0  0  0  0  0  0  0  0  0  0  0
   12.4873   -2.6157    4.1864 H   0  0  0  0  0  0  0  0  0  0  0  0
   11.7999    0.2634    3.5472 H   0  0  0  0  0  0  0  0  0  0  0  0
   12.1180   -0.4178    5.1145 H   0  0  0  0  0  0  0  0  0  0  0  0
    9.8606   -1.3381    3.2734 H   0  0  0  0  0  0  0  0  0  0  0  0
   10.3584   -1.7490    6.2771 H   0  0  0  0  0  0  0  0  0  0  0  0
   10.4187   -3.0091    5.0313 H   0  0  0  0  0  0  0  0  0  0  0  0
    8.8877   -2.2150    5.4098 H   0  0  0  0  0  0  0  0  0  0  0  0
    9.8636    0.7255    5.5462 H   0  0  0  0  0  0  0  0  0  0  0  0
    8.4190    0.1252    4.7095 H   0  0  0  0  0  0  0  0  0  0  0  0
    9.6294    1.0635    3.8254 H   0  0  0  0  0  0  0  0  0  0  0  0
   12.0849    0.2687    1.5291 H   0  0  0  0  0  0  0  0  0  0  0  0
   10.8825   -0.7195    0.7202 H   0  0  0  0  0  0  0  0  0  0  0  0
   12.2218    0.0224   -0.2093 H   0  0  0  0  0  0  0  0  0  0  0  0
   13.9074   -1.7345   -0.7303 H   0  0  0  0  0  0  0  0  0  0  0  0
   12.9579   -4.5780   -0.1229 H   0  0  0  0  0  0  0  0  0  0  0  0
   15.6018   -3.7114   -1.4036 H   0  0  0  0  0  0  0  0  0  0  0  0
   14.2335   -4.1926   -2.3598 H   0  0  0  0  0  0  0  0  0  0  0  0
   14.9162   -5.3471   -1.2886 H   0  0  0  0  0  0  0  0  0  0  0  0
   15.2629   -3.1815    1.1607 H   0  0  0  0  0  0  0  0  0  0  0  0
   15.3706   -4.9096    0.8733 H   0  0  0  0  0  0  0  0  0  0  0  0
   14.0874   -4.3133    1.8961 H   0  0  0  0  0  0  0  0  0  0  0  0
   12.5967   -4.7888   -3.3589 H   0  0  0  0  0  0  0  0  0  0  0  0
   11.6304   -3.7011   -4.3511 H   0  0  0  0  0  0  0  0  0  0  0  0
   11.0083   -4.3371   -2.7953 H   0  0  0  0  0  0  0  0  0  0  0  0
  1  2  1  0  0  0  0
  1 87  1  0  0  0  0
  1 88  1  0  0  0  0
  1 89  1  0  0  0  0
  2  3  2  0  0  0  0
  2 90  1  0  0  0  0
  3  4  1  0  0  0  0
  3 91  1  0  0  0  0
  4  5  1  0  0  0  0
  4 92  1  0  0  0  0
  4 93  1  0  0  0  0
  5  6  1  0  0  0  0
  5  7  1  0  0  0  0
  5 94  1  1  0  0  0
  6 95  1  0  0  0  0
  6 96  1  0  0  0  0
  6 97  1  0  0  0  0
  7  8  2  0  0  0  0
  7  9  1  0  0  0  0
  9 10  1  0  0  0  0
  9 85  1  0  0  0  0
  9 98  1  6  0  0  0
 10 11  2  0  0  0  0
 10 12  1  0  0  0  0
 12 13  1  0  0  0  0
 12 99  1  0  0  0  0
 13 14  1  0  0  0  0
 13 17  1  0  0  0  0
 13100  1  6  0  0  0
 14 15  1  0  0  0  0
 14 16  1  0  0  0  0
 14101  1  0  0  0  0
 15102  1  0  0  0  0
 15103  1  0  0  0  0
 15104  1  0  0  0  0
 16105  1  0  0  0  0
 16106  1  0  0  0  0
 16107  1  0  0  0  0
 17 18  2  0  0  0  0
 17 19  1  0  0  0  0
 19 20  1  0  0  0  0
 19 21  1  0  0  0  0
 20108  1  0  0  0  0
 20109  1  0  0  0  0
 20110  1  0  0  0  0
 21 22  1  0  0  0  0
 21111  1  0  0  0  0
 21112  1  0  0  0  0
 22 23  2  0  0  0  0
 22 24  1  0  0  0  0
 24 25  1  0  0  0  0
 24 26  1  0  0  0  0
 25113  1  0  0  0  0
 25114  1  0  0  0  0
 25115  1  0  0  0  0
 26 27  1  0  0  0  0
 26 31  1  0  0  0  0
 26116  1  1  0  0  0
 27 28  1  0  0  0  0
 27117  1  0  0  0  0
 27118  1  0  0  0  0
 28 29  1  0  0  0  0
 28 30  1  0  0  0  0
 28119  1  0  0  0  0
 29120  1  0  0  0  0
 29121  1  0  0  0  0
 29122  1  0  0  0  0
 30123  1  0  0  0  0
 30124  1  0  0  0  0
 30125  1  0  0  0  0
 31 32  2  0  0  0  0
 31 33  1  0  0  0  0
 33 34  1  0  0  0  0
 33126  1  0  0  0  0
 34 35  1  0  0  0  0
 34 38  1  0  0  0  0
 34127  1  6  0  0  0
 35 36  1  0  0  0  0
 35 37  1  0  0  0  0
 35128  1  0  0  0  0
 36129  1  0  0  0  0
 36130  1  0  0  0  0
 36131  1  0  0  0  0
 37132  1  0  0  0  0
 37133  1  0  0  0  0
 37134  1  0  0  0  0
 38 39  2  0  0  0  0
 38 40  1  0  0  0  0
 40 41  1  0  0  0  0
 40 42  1  0  0  0  0
 41135  1  0  0  0  0
 41136  1  0  0  0  0
 41137  1  0  0  0  0
 42 43  1  0  0  0  0
 42 47  1  0  0  0  0
 42138  1  1  0  0  0
 43 44  1  0  0  0  0
 43139  1  0  0  0  0
 43140  1  0  0  0  0
 44 45  1  0  0  0  0
 44 46  1  0  0  0  0
 44141  1  0  0  0  0
 45142  1  0  0  0  0
 45143  1  0  0  0  0
 45144  1  0  0  0  0
 46145  1  0  0  0  0
 46146  1  0  0  0  0
 46147  1  0  0  0  0
 47 48  2  0  0  0  0
 47 49  1  0  0  0  0
 49 50  1  0  0  0  0
 49148  1  0  0  0  0
 50 51  1  0  0  0  0
 50 52  1  0  0  0  0
 50149  1  6  0  0  0
 51150  1  0  0  0  0
 51151  1  0  0  0  0
 51152  1  0  0  0  0
 52 53  2  0  0  0  0
 52 54  1  0  0  0  0
 54 55  1  0  0  0  0
 54153  1  0  0  0  0
 55 57  1  0  0  0  0
 55 56  1  0  0  0  0
 55154  1  1  0  0  0
 56155  1  0  0  0  0
 56156  1  0  0  0  0
 56157  1  0  0  0  0
 57 58  2  0  0  0  0
 57 59  1  0  0  0  0
 59 60  1  0  0  0  0
 59 61  1  0  0  0  0
 60158  1  0  0  0  0
 60159  1  0  0  0  0
 60160  1  0  0  0  0
 61 62  1  0  0  0  0
 61 66  1  0  0  0  0
 61161  1  6  0  0  0
 62 63  1  0  0  0  0
 62162  1  0  0  0  0
 62163  1  0  0  0  0
 63 64  1  0  0  0  0
 63 65  1  0  0  0  0
 63164  1  0  0  0  0
 64165  1  0  0  0  0
 64166  1  0  0  0  0
 64167  1  0  0  0  0
 65168  1  0  0  0  0
 65169  1  0  0  0  0
 65170  1  0  0  0  0
 66 67  2  0  0  0  0
 66 68  1  0  0  0  0
 68 69  1  0  0  0  0
 68 70  1  0  0  0  0
 69171  1  0  0  0  0
 69172  1  0  0  0  0
 69173  1  0  0  0  0
 70 71  1  0  0  0  0
 70 75  1  0  0  0  0
 70174  1  1  0  0  0
 71 72  1  0  0  0  0
 71175  1  0  0  0  0
 71176  1  0  0  0  0
 72 73  1  0  0  0  0
 72 74  1  0  0  0  0
 72177  1  0  0  0  0
 73178  1  0  0  0  0
 73179  1  0  0  0  0
 73180  1  0  0  0  0
 74181  1  0  0  0  0
 74182  1  0  0  0  0
 74183  1  0  0  0  0
 75 76  2  0  0  0  0
 75 77  1  0  0  0  0
 77 78  1  0  0  0  0
 77 79  1  0  0  0  0
 78184  1  0  0  0  0
 78185  1  0  0  0  0
 78186  1  0  0  0  0
 79 80  1  0  0  0  0
 79 83  1  0  0  0  0
 79187  1  6  0  0  0
 80 81  1  0  0  0  0
 80 82  1  0  0  0  0
 80188  1  0  0  0  0
 81189  1  0  0  0  0
 81190  1  0  0  0  0
 81191  1  0  0  0  0
 82192  1  0  0  0  0
 82193  1  0  0  0  0
 82194  1  0  0  0  0
 83 84  2  0  0  0  0
 83 85  1  0  0  0  0
 85 86  1  0  0  0  0
 86195  1  0  0  0  0
 86196  1  0  0  0  0
 86197  1  0  0  0  0
M  END
>  <Energy>
632.966

$$$$