51263
  -OEChem-03242010103D

 62 64  0     0  0  0  0  0  0999 V2000
    2.4771   -1.4775    2.1926 O   0  0  0  0  0  0  0  0  0  0  0  0
    3.9880   -2.4516   -1.1119 O   0  0  0  0  0  0  0  0  0  0  0  0
   -5.0470    0.6059    1.6604 O   0  0  0  0  0  0  0  0  0  0  0  0
   -1.0276   -0.3325   -0.7195 N   0  0  0  0  0  0  0  0  0  0  0  0
    3.1655   -0.4005   -0.2803 N   0  0  0  0  0  0  0  0  0  0  0  0
   -4.6296    0.6047   -0.6537 N   0  0  0  0  0  0  0  0  0  0  0  0
   -5.4298    0.4731   -1.7546 N   0  0  0  0  0  0  0  0  0  0  0  0
   -6.6803    0.3517   -0.0119 N   0  0  0  0  0  0  0  0  0  0  0  0
   -6.6333    0.3246   -1.3778 N   0  0  0  0  0  0  0  0  0  0  0  0
    1.8040   -0.8370   -0.0111 C   0  0  0  0  0  0  0  0  0  0  0  0
    0.9919    0.3536    0.5346 C   0  0  0  0  0  0  0  0  0  0  0  0
    1.1595   -1.3177   -1.3258 C   0  0  0  0  0  0  0  0  0  0  0  0
   -0.5130    0.0760    0.5932 C   0  0  0  0  0  0  0  0  0  0  0  0
   -0.3507   -1.5409   -1.2063 C   0  0  0  0  0  0  0  0  0  0  0  0
    1.8691   -1.9762    1.0181 C   0  0  0  0  0  0  0  0  0  0  0  0
   -2.4738   -0.5435   -0.6602 C   0  0  0  0  0  0  0  0  0  0  0  0
    3.5275    0.9792    0.0133 C   0  0  0  0  0  0  0  0  0  0  0  0
    4.1569   -1.2654   -0.8182 C   0  0  0  0  0  0  0  0  0  0  0  0
   -3.2045    0.7910   -0.6831 C   0  0  0  0  0  0  0  0  0  0  0  0
    5.5403   -0.6449   -0.9907 C   0  0  0  0  0  0  0  0  0  0  0  0
    3.3761    1.9629   -0.9641 C   0  0  0  0  0  0  0  0  0  0  0  0
    4.0248    1.3173    1.2719 C   0  0  0  0  0  0  0  0  0  0  0  0
    2.5764   -2.4765    3.2027 C   0  0  0  0  0  0  0  0  0  0  0  0
    6.5516   -1.6145   -1.5834 C   0  0  0  0  0  0  0  0  0  0  0  0
    3.7223    3.2846   -0.6830 C   0  0  0  0  0  0  0  0  0  0  0  0
    4.3709    2.6390    1.5531 C   0  0  0  0  0  0  0  0  0  0  0  0
   -5.4024    0.5312    0.4955 C   0  0  0  0  0  0  0  0  0  0  0  0
    4.2197    3.6227    0.5756 C   0  0  0  0  0  0  0  0  0  0  0  0
   -7.9176    0.2070    0.7069 C   0  0  0  0  0  0  0  0  0  0  0  0
   -8.2121   -1.2459    1.0178 C   0  0  0  0  0  0  0  0  0  0  0  0
    1.3173    0.6593    1.5362 H   0  0  0  0  0  0  0  0  0  0  0  0
    1.0759    1.2325   -0.1151 H   0  0  0  0  0  0  0  0  0  0  0  0
    1.3406   -0.5760   -2.1169 H   0  0  0  0  0  0  0  0  0  0  0  0
    1.6127   -2.2511   -1.6780 H   0  0  0  0  0  0  0  0  0  0  0  0
   -0.9937    1.0005    0.9307 H   0  0  0  0  0  0  0  0  0  0  0  0
   -0.7253   -0.6842    1.3555 H   0  0  0  0  0  0  0  0  0  0  0  0
   -0.5592   -2.3991   -0.5555 H   0  0  0  0  0  0  0  0  0  0  0  0
   -0.7274   -1.7984   -2.2041 H   0  0  0  0  0  0  0  0  0  0  0  0
    0.8651   -2.3370    1.2675 H   0  0  0  0  0  0  0  0  0  0  0  0
    2.4314   -2.8410    0.6520 H   0  0  0  0  0  0  0  0  0  0  0  0
   -2.7637   -1.1429    0.2131 H   0  0  0  0  0  0  0  0  0  0  0  0
   -2.8072   -1.1108   -1.5401 H   0  0  0  0  0  0  0  0  0  0  0  0
   -2.9425    1.4049    0.1841 H   0  0  0  0  0  0  0  0  0  0  0  0
   -2.9558    1.3609   -1.5860 H   0  0  0  0  0  0  0  0  0  0  0  0
    5.9142   -0.3182   -0.0154 H   0  0  0  0  0  0  0  0  0  0  0  0
    5.4714    0.2187   -1.6592 H   0  0  0  0  0  0  0  0  0  0  0  0
    2.9909    1.7099   -1.9484 H   0  0  0  0  0  0  0  0  0  0  0  0
    4.1579    0.5620    2.0409 H   0  0  0  0  0  0  0  0  0  0  0  0
    3.0505   -2.0298    4.0806 H   0  0  0  0  0  0  0  0  0  0  0  0
    3.1953   -3.3099    2.8566 H   0  0  0  0  0  0  0  0  0  0  0  0
    1.5820   -2.8349    3.4856 H   0  0  0  0  0  0  0  0  0  0  0  0
    7.5255   -1.1278   -1.6945 H   0  0  0  0  0  0  0  0  0  0  0  0
    6.6799   -2.4915   -0.9403 H   0  0  0  0  0  0  0  0  0  0  0  0
    6.2299   -1.9643   -2.5700 H   0  0  0  0  0  0  0  0  0  0  0  0
    3.6049    4.0502   -1.4442 H   0  0  0  0  0  0  0  0  0  0  0  0
    4.7603    2.9019    2.5322 H   0  0  0  0  0  0  0  0  0  0  0  0
    4.4898    4.6516    0.7942 H   0  0  0  0  0  0  0  0  0  0  0  0
   -8.7248    0.6485    0.1133 H   0  0  0  0  0  0  0  0  0  0  0  0
   -7.8352    0.7665    1.6450 H   0  0  0  0  0  0  0  0  0  0  0  0
   -8.2987   -1.8346    0.0985 H   0  0  0  0  0  0  0  0  0  0  0  0
   -7.4136   -1.6891    1.6223 H   0  0  0  0  0  0  0  0  0  0  0  0
   -9.1514   -1.3357    1.5719 H   0  0  0  0  0  0  0  0  0  0  0  0
  1 15  1  0  0  0  0
  1 23  1  0  0  0  0
  2 18  2  0  0  0  0
  3 27  2  0  0  0  0
  4 13  1  0  0  0  0
  4 14  1  0  0  0  0
  4 16  1  0  0  0  0
  5 10  1  0  0  0  0
  5 17  1  0  0  0  0
  5 18  1  0  0  0  0
  6  7  1  0  0  0  0
  6 19  1  0  0  0  0
  6 27  1  0  0  0  0
  7  9  2  0  0  0  0
  8  9  1  0  0  0  0
  8 27  1  0  0  0  0
  8 29  1  0  0  0  0
 10 11  1  0  0  0  0
 10 12  1  0  0  0  0
 10 15  1  0  0  0  0
 11 13  1  0  0  0  0
 11 31  1  0  0  0  0
 11 32  1  0  0  0  0
 12 14  1  0  0  0  0
 12 33  1  0  0  0  0
 12 34  1  0  0  0  0
 13 35  1  0  0  0  0
 13 36  1  0  0  0  0
 14 37  1  0  0  0  0
 14 38  1  0  0  0  0
 15 39  1  0  0  0  0
 15 40  1  0  0  0  0
 16 19  1  0  0  0  0
 16 41  1  0  0  0  0
 16 42  1  0  0  0  0
 17 21  2  0  0  0  0
 17 22  1  0  0  0  0
 18 20  1  0  0  0  0
 19 43  1  0  0  0  0
 19 44  1  0  0  0  0
 20 24  1  0  0  0  0
 20 45  1  0  0  0  0
 20 46  1  0  0  0  0
 21 25  1  0  0  0  0
 21 47  1  0  0  0  0
 22 26  2  0  0  0  0
 22 48  1  0  0  0  0
 23 49  1  0  0  0  0
 23 50  1  0  0  0  0
 23 51  1  0  0  0  0
 24 52  1  0  0  0  0
 24 53  1  0  0  0  0
 24 54  1  0  0  0  0
 25 28  2  0  0  0  0
 25 55  1  0  0  0  0
 26 28  1  0  0  0  0
 26 56  1  0  0  0  0
 28 57  1  0  0  0  0
 29 30  1  0  0  0  0
 29 58  1  0  0  0  0
 29 59  1  0  0  0  0
 30 60  1  0  0  0  0
 30 61  1  0  0  0  0
 30 62  1  0  0  0  0
M  END
> <PUBCHEM_COMPOUND_CID>
51263

> <PUBCHEM_CONFORMER_RMSD>
1

> <PUBCHEM_CONFORMER_DIVERSEORDER>
1
13
38
9
63
51
71
76
70
18
11
68
65
25
75
41
36
49
56
54
27
73
53
7
57
19
15
31
17
24
8
59
47
22
64
14
62
28
72
6
46
66
44
48
35
61
40
52
34
60
4
2
58
33
21
42
23
10
37
45
39
74
26
50
3
67
69
16
55
12
29
5
32
30
43
20

> <PUBCHEM_MMFF94_PARTIAL_CHARGES>
31
1 -0.56
10 0.3
13 0.27
14 0.27
15 0.28
16 0.27
17 0.12
18 0.57
19 0.3
2 -0.57
20 0.06
21 -0.15
22 -0.15
23 0.28
25 -0.15
26 -0.15
27 0.69
28 -0.15
29 0.3
3 -0.57
4 -0.81
47 0.15
48 0.15
5 -0.48
55 0.15
56 0.15
57 0.15
6 -0.3
7 -0.06
8 -0.3
9 -0.06

> <PUBCHEM_EFFECTIVE_ROTOR_COUNT>
11.2

> <PUBCHEM_PHARMACOPHORE_FEATURES>
8
1 1 acceptor
1 2 acceptor
1 24 hydrophobe
1 3 acceptor
1 4 cation
5 6 7 8 9 27 rings
6 17 21 22 25 26 28 rings
6 4 10 11 12 13 14 rings

> <PUBCHEM_HEAVY_ATOM_COUNT>
30

> <PUBCHEM_ATOM_DEF_STEREO_COUNT>
0

> <PUBCHEM_ATOM_UDEF_STEREO_COUNT>
0

> <PUBCHEM_BOND_DEF_STEREO_COUNT>
0

> <PUBCHEM_BOND_UDEF_STEREO_COUNT>
0

> <PUBCHEM_ISOTOPIC_ATOM_COUNT>
0

> <PUBCHEM_COMPONENT_COUNT>
1

> <PUBCHEM_CACTVS_TAUTO_COUNT>
1

> <PUBCHEM_CONFORMER_ID>
0000C83F00000001

> <PUBCHEM_MMFF94_ENERGY>
93.145

> <PUBCHEM_FEATURE_SELFOVERLAP>
40.597

> <PUBCHEM_SHAPE_FINGERPRINT>
10165383 225 17168152239357087374
10675989 125 18057318594703686848
11719270 70 14273447094632480897
1200032 147 18341613789169870256
12107698 1 18342740663559353348
12166972 35 17917431982460754128
12596602 18 18412831300668489547
12730499 353 17967251992059508075
13383665 225 17900274296534970838
13955234 65 18339073800723390730
14170010 4 18201718453922966492
14461889 52 17749671904520048649
15183329 4 12967140423531285713
15439362 3 18200591527688018132
16090146 7 16917083165142517974
17844677 252 18340772542352013509
18681886 176 18131064897167344674
20567600 234 17676768785961603037
21033648 29 17822858722775098536
22149856 69 17775007912541925411
23081809 10 17131826582703805277
23522609 53 17203063975453979353
23559900 14 18131345311103043454
239999 70 18408886226556005694
249057 3 18273217491474466718
3004659 81 17775283842109020182
3178227 256 18271529710691969342
397830 11 18116160042243003755
4340502 62 18040428915047168395
44317340 157 18272654592638146125
4625314 4 18341897390461061823
5109719 28 17895765126857795089
6086070 43 18261118474006768410
633830 44 18189327030528384838
70251023 43 18270125595846206136
9658208 31 17894920680320659594
9981440 41 17622716936564711744

> <PUBCHEM_SHAPE_MULTIPOLES>
569.89
19.4
3
1.98
45.48
1.79
-1.22
1.93
0.65
-6.87
-0.73
-1.21
-1.11
1.25

> <PUBCHEM_SHAPE_SELFOVERLAP>
1179.03

> <PUBCHEM_SHAPE_VOLUME>
325.4

> <PUBCHEM_COORDINATE_TYPE>
2
5
10

$$$$