
 OpenBabel03292020543D

118120  0  0  1  0  0  0  0  0999 V2000
    4.3276   -3.4772   -4.4363 C   0  0  0  0  0  0  0  0  0  0  0  0
    4.1750   -4.9821   -4.6131 C   0  0  0  0  0  0  0  0  0  0  0  0
    5.0317   -5.7965   -3.6214 C   0  0  1  0  0  0  0  0  0  0  0  0
    4.4842   -5.5466   -2.3022 O   0  0  0  0  0  0  0  0  0  0  0  0
    5.1901   -4.7812   -1.4206 C   0  0  0  0  0  0  0  0  0  0  0  0
    6.3555   -4.4366   -1.5600 O   0  0  0  0  0  0  0  0  0  0  0  0
    4.2697   -4.3655   -0.2797 C   0  0  2  0  0  0  0  0  0  0  0  0
    4.6314   -2.9344    0.1512 C   0  0  0  0  0  0  0  0  0  0  0  0
    4.2684   -5.3211    0.9449 C   0  0  1  0  0  0  0  0  0  0  0  0
    3.2856   -4.9878    1.9490 O   0  0  0  0  0  0  0  0  0  0  0  0
    1.8891   -4.7964    1.6386 C   0  0  1  0  0  0  0  0  0  0  0  0
    1.2351   -4.3010    2.9378 C   0  0  0  0  0  0  0  0  0  0  0  0
   -0.2621   -3.9615    2.7980 C   0  0  1  0  0  0  0  0  0  0  0  0
   -1.0956   -5.2496    2.7149 C   0  0  0  0  0  0  0  0  0  0  0  0
   -0.6138   -3.2337    4.0102 O   0  0  0  0  0  0  0  0  0  0  0  0
   -1.9889   -2.9159    4.2018 C   0  0  0  0  0  0  0  0  0  0  0  0
   -0.4609   -3.0330    1.5775 C   0  0  1  0  0  0  0  0  0  0  0  0
    0.0066   -1.7073    1.9247 O   0  0  0  0  0  0  0  0  0  0  0  0
    0.3159   -3.4759    0.3262 C   0  0  2  0  0  0  0  0  0  0  0  0
   -0.3851   -4.5477   -0.5031 C   0  0  0  0  0  0  0  0  0  0  0  0
    1.6693   -3.8385    0.6116 O   0  0  0  0  0  0  0  0  0  0  0  0
    4.3702   -6.8520    0.6181 C   0  0  2  0  0  0  0  0  0  0  0  0
    3.0889   -7.4602    0.0657 C   0  0  0  0  0  0  0  0  0  0  0  0
    5.0806   -7.6874    1.7586 C   0  0  1  0  0  0  0  0  0  0  0  0
    4.3027   -8.8030    2.2299 O   0  0  0  0  0  0  0  0  0  0  0  0
    3.4459   -8.5700    3.3620 C   0  0  2  0  0  0  0  0  0  0  0  0
    4.0642   -7.7239    4.3064 O   0  0  0  0  0  0  0  0  0  0  0  0
    4.9002   -8.3338    5.2826 C   0  0  2  0  0  0  0  0  0  0  0  0
    6.0559   -7.3386    5.4508 C   0  0  0  0  0  0  0  0  0  0  0  0
    5.3187   -9.8201    5.0591 C   0  0  0  0  0  0  0  0  0  0  0  0
    4.2560  -10.7464    4.3660 C   0  0  2  0  0  0  0  0  0  0  0  0
    4.6396  -11.7515    3.3406 N   0  0  0  0  0  0  0  0  0  0  0  0
    5.9319  -12.3931    3.4083 C   0  0  0  0  0  0  0  0  0  0  0  0
    4.0577  -11.7405    2.0100 C   0  0  0  0  0  0  0  0  0  0  0  0
    3.0049   -9.8954    4.0409 C   0  0  1  0  0  0  0  0  0  0  0  0
    2.2536   -9.6502    5.2579 O   0  0  0  0  0  0  0  0  0  0  0  0
    6.5163   -8.2270    1.2647 C   0  0  2  0  0  0  0  0  0  0  0  0
    7.3184   -8.8439    2.4048 C   0  0  0  0  0  0  0  0  0  0  0  0
    7.2719   -7.1187    0.7725 O   0  0  0  0  0  0  0  0  0  0  0  0
    6.4125   -9.3191    0.1698 C   0  0  0  0  0  0  0  0  0  0  0  0
    7.5678   -9.3973   -0.8517 C   0  0  1  0  0  0  0  0  0  0  0  0
    8.8637  -10.0127   -0.3145 C   0  0  0  0  0  0  0  0  0  0  0  0
    7.0791  -10.1933   -2.0654 C   0  0  0  0  0  0  0  0  0  0  0  0
    7.5355  -11.3281   -2.3048 O   0  0  0  0  0  0  0  0  0  0  0  0
    5.9341   -9.6182   -2.9225 C   0  0  2  0  0  0  0  0  0  0  0  0
    5.8657  -10.3957   -4.2410 C   0  0  0  0  0  0  0  0  0  0  0  0
    6.0448   -8.0819   -3.0739 C   0  0  1  0  0  0  0  0  0  0  0  0
    7.3411   -7.7336   -3.6025 O   0  0  0  0  0  0  0  0  0  0  0  0
    4.9792   -7.3397   -3.9350 C   0  0  1  0  0  0  0  0  0  0  0  0
    3.5486   -7.8716   -3.7528 C   0  0  0  0  0  0  0  0  0  0  0  0
    5.3449   -7.5542   -5.3129 O   0  0  0  0  0  0  0  0  0  0  0  0
    3.6893   -2.9532   -5.1549 H   0  0  0  0  0  0  0  0  0  0  0  0
    5.3620   -3.1667   -4.6106 H   0  0  0  0  0  0  0  0  0  0  0  0
    4.0308   -3.1541   -3.4345 H   0  0  0  0  0  0  0  0  0  0  0  0
    4.4382   -5.2360   -5.6448 H   0  0  0  0  0  0  0  0  0  0  0  0
    3.1146   -5.2217   -4.4698 H   0  0  0  0  0  0  0  0  0  0  0  0
    6.0691   -5.4467   -3.6983 H   0  0  0  0  0  0  0  0  0  0  0  0
    3.2811   -4.3201   -0.7386 H   0  0  0  0  0  0  0  0  0  0  0  0
    5.6469   -2.8907    0.5628 H   0  0  0  0  0  0  0  0  0  0  0  0
    3.9480   -2.5538    0.9163 H   0  0  0  0  0  0  0  0  0  0  0  0
    4.5973   -2.2484   -0.7023 H   0  0  0  0  0  0  0  0  0  0  0  0
    5.2165   -5.0990    1.4557 H   0  0  0  0  0  0  0  0  0  0  0  0
    1.4663   -5.7569    1.3430 H   0  0  0  0  0  0  0  0  0  0  0  0
    1.7683   -3.4004    3.2743 H   0  0  0  0  0  0  0  0  0  0  0  0
    1.3919   -5.0273    3.7464 H   0  0  0  0  0  0  0  0  0  0  0  0
   -1.0867   -5.7726    3.6788 H   0  0  0  0  0  0  0  0  0  0  0  0
   -0.7359   -5.9480    1.9598 H   0  0  0  0  0  0  0  0  0  0  0  0
   -2.1448   -5.0300    2.4873 H   0  0  0  0  0  0  0  0  0  0  0  0
   -2.0594   -2.2299    5.0519 H   0  0  0  0  0  0  0  0  0  0  0  0
   -2.5639   -3.8130    4.4473 H   0  0  0  0  0  0  0  0  0  0  0  0
   -2.4189   -2.4144    3.3300 H   0  0  0  0  0  0  0  0  0  0  0  0
   -1.5227   -2.9100    1.3402 H   0  0  0  0  0  0  0  0  0  0  0  0
    0.0265   -1.6655    2.9024 H   0  0  0  0  0  0  0  0  0  0  0  0
    0.3943   -2.5959   -0.3268 H   0  0  0  0  0  0  0  0  0  0  0  0
   -0.2837   -5.5489   -0.0813 H   0  0  0  0  0  0  0  0  0  0  0  0
    0.0733   -4.5962   -1.4983 H   0  0  0  0  0  0  0  0  0  0  0  0
   -1.4483   -4.3192   -0.6377 H   0  0  0  0  0  0  0  0  0  0  0  0
    5.0710   -6.8958   -0.2154 H   0  0  0  0  0  0  0  0  0  0  0  0
    2.3649   -7.7100    0.8393 H   0  0  0  0  0  0  0  0  0  0  0  0
    3.3149   -8.3791   -0.4847 H   0  0  0  0  0  0  0  0  0  0  0  0
    2.6051   -6.7753   -0.6369 H   0  0  0  0  0  0  0  0  0  0  0  0
    5.3083   -7.0024    2.5809 H   0  0  0  0  0  0  0  0  0  0  0  0
    2.5468   -8.0504    3.0172 H   0  0  0  0  0  0  0  0  0  0  0  0
    4.3267   -8.2950    6.2175 H   0  0  0  0  0  0  0  0  0  0  0  0
    5.8405   -6.3842    4.9486 H   0  0  0  0  0  0  0  0  0  0  0  0
    6.9919   -7.7109    5.0414 H   0  0  0  0  0  0  0  0  0  0  0  0
    6.2403   -7.1145    6.5041 H   0  0  0  0  0  0  0  0  0  0  0  0
    5.5234  -10.2343    6.0577 H   0  0  0  0  0  0  0  0  0  0  0  0
    6.2932   -9.8866    4.5873 H   0  0  0  0  0  0  0  0  0  0  0  0
    3.9557  -11.4149    5.1859 H   0  0  0  0  0  0  0  0  0  0  0  0
    5.9355  -13.3074    2.7859 H   0  0  0  0  0  0  0  0  0  0  0  0
    6.1612  -12.7273    4.4192 H   0  0  0  0  0  0  0  0  0  0  0  0
    6.7489  -11.7733    3.0347 H   0  0  0  0  0  0  0  0  0  0  0  0
    4.2432  -12.6833    1.4823 H   0  0  0  0  0  0  0  0  0  0  0  0
    4.4485  -10.9511    1.3677 H   0  0  0  0  0  0  0  0  0  0  0  0
    2.9671  -11.6575    2.0192 H   0  0  0  0  0  0  0  0  0  0  0  0
    2.3025  -10.4337    3.4044 H   0  0  0  0  0  0  0  0  0  0  0  0
    2.1887  -10.4961    5.7334 H   0  0  0  0  0  0  0  0  0  0  0  0
    7.5473   -8.1138    3.1752 H   0  0  0  0  0  0  0  0  0  0  0  0
    8.2861   -9.2326    2.0930 H   0  0  0  0  0  0  0  0  0  0  0  0
    6.7739   -9.6871    2.8035 H   0  0  0  0  0  0  0  0  0  0  0  0
    7.5658   -6.5856    1.5340 H   0  0  0  0  0  0  0  0  0  0  0  0
    5.4727   -9.1657   -0.3627 H   0  0  0  0  0  0  0  0  0  0  0  0
    6.2970  -10.3101    0.6285 H   0  0  0  0  0  0  0  0  0  0  0  0
    7.8403   -8.4019   -1.2084 H   0  0  0  0  0  0  0  0  0  0  0  0
    8.6799  -10.9600    0.2036 H   0  0  0  0  0  0  0  0  0  0  0  0
    9.3777   -9.3301    0.3671 H   0  0  0  0  0  0  0  0  0  0  0  0
    9.5686  -10.2139   -1.1302 H   0  0  0  0  0  0  0  0  0  0  0  0
    5.0152   -9.8522   -2.3684 H   0  0  0  0  0  0  0  0  0  0  0  0
    6.7836  -10.2876   -4.8229 H   0  0  0  0  0  0  0  0  0  0  0  0
    5.0252  -10.0815   -4.8627 H   0  0  0  0  0  0  0  0  0  0  0  0
    5.7243  -11.4659   -4.0493 H   0  0  0  0  0  0  0  0  0  0  0  0
    5.9991   -7.6477   -2.0761 H   0  0  0  0  0  0  0  0  0  0  0  0
    7.5809   -8.3791   -4.2903 H   0  0  0  0  0  0  0  0  0  0  0  0
    3.0827   -7.5147   -2.8326 H   0  0  0  0  0  0  0  0  0  0  0  0
    3.4953   -8.9617   -3.7374 H   0  0  0  0  0  0  0  0  0  0  0  0
    2.9176   -7.5687   -4.5963 H   0  0  0  0  0  0  0  0  0  0  0  0
    6.2313   -7.1551   -5.4129 H   0  0  0  0  0  0  0  0  0  0  0  0
  1  2  1  0  0  0  0
  1 52  1  0  0  0  0
  1 53  1  0  0  0  0
  1 54  1  0  0  0  0
  2 55  1  0  0  0  0
  2 56  1  0  0  0  0
  3  4  1  0  0  0  0
  3 49  1  0  0  0  0
  3  2  1  0  0  0  0
  3 57  1  6  0  0  0
  4  5  1  0  0  0  0
  5  6  2  0  0  0  0
  5  7  1  0  0  0  0
  7  8  1  0  0  0  0
  7  9  1  0  0  0  0
  7 58  1  6  0  0  0
  8 59  1  0  0  0  0
  8 60  1  0  0  0  0
  8 61  1  0  0  0  0
  9 22  1  0  0  0  0
  9 10  1  0  0  0  0
  9 62  1  1  0  0  0
 11 12  1  0  0  0  0
 11 21  1  0  0  0  0
 11 10  1  0  0  0  0
 11 63  1  6  0  0  0
 12 13  1  0  0  0  0
 12 64  1  0  0  0  0
 12 65  1  0  0  0  0
 13 14  1  0  0  0  0
 13 15  1  1  0  0  0
 13 17  1  0  0  0  0
 14 66  1  0  0  0  0
 14 67  1  0  0  0  0
 14 68  1  0  0  0  0
 15 16  1  0  0  0  0
 16 69  1  0  0  0  0
 16 70  1  0  0  0  0
 16 71  1  0  0  0  0
 17 18  1  0  0  0  0
 17 19  1  0  0  0  0
 17 72  1  6  0  0  0
 18 73  1  0  0  0  0
 19 21  1  0  0  0  0
 19 20  1  0  0  0  0
 19 74  1  6  0  0  0
 20 75  1  0  0  0  0
 20 76  1  0  0  0  0
 20 77  1  0  0  0  0
 22 23  1  0  0  0  0
 22 24  1  0  0  0  0
 22 78  1  6  0  0  0
 23 79  1  0  0  0  0
 23 80  1  0  0  0  0
 23 81  1  0  0  0  0
 24 25  1  0  0  0  0
 24 37  1  0  0  0  0
 24 82  1  1  0  0  0
 25 26  1  0  0  0  0
 26 27  1  0  0  0  0
 26 35  1  0  0  0  0
 26 83  1  6  0  0  0
 27 28  1  0  0  0  0
 28 30  1  0  0  0  0
 28 29  1  0  0  0  0
 28 84  1  1  0  0  0
 29 85  1  0  0  0  0
 29 86  1  0  0  0  0
 29 87  1  0  0  0  0
 30 31  1  0  0  0  0
 30 88  1  0  0  0  0
 30 89  1  0  0  0  0
 31 35  1  0  0  0  0
 31 32  1  0  0  0  0
 31 90  1  1  0  0  0
 32 33  1  0  0  0  0
 32 34  1  0  0  0  0
 33 91  1  0  0  0  0
 33 92  1  0  0  0  0
 33 93  1  0  0  0  0
 34 94  1  0  0  0  0
 34 95  1  0  0  0  0
 34 96  1  0  0  0  0
 35 36  1  0  0  0  0
 35 97  1  6  0  0  0
 36 98  1  0  0  0  0
 37 38  1  0  0  0  0
 37 39  1  6  0  0  0
 37 40  1  0  0  0  0
 38 99  1  0  0  0  0
 38100  1  0  0  0  0
 38101  1  0  0  0  0
 39102  1  0  0  0  0
 40 41  1  0  0  0  0
 40103  1  0  0  0  0
 40104  1  0  0  0  0
 41 42  1  0  0  0  0
 41 43  1  0  0  0  0
 41105  1  6  0  0  0
 42106  1  0  0  0  0
 42107  1  0  0  0  0
 42108  1  0  0  0  0
 43 44  2  0  0  0  0
 43 45  1  0  0  0  0
 45 46  1  0  0  0  0
 45 47  1  0  0  0  0
 45109  1  1  0  0  0
 46110  1  0  0  0  0
 46111  1  0  0  0  0
 46112  1  0  0  0  0
 47 48  1  0  0  0  0
 47 49  1  0  0  0  0
 47113  1  1  0  0  0
 48114  1  0  0  0  0
 49 50  1  0  0  0  0
 49 51  1  6  0  0  0
 50115  1  0  0  0  0
 50116  1  0  0  0  0
 50117  1  0  0  0  0
 51118  1  0  0  0  0
M  END
>  <Energy>
278.781

$$$$