104774
  -OEChem-03242010103D

 54 56  0     0  0  0  0  0  0999 V2000
    2.9347    2.4116    2.5750 I   0  0  0  0  0  0  0  0  0  0  0  0
    2.5693    0.3198   -3.1461 I   0  0  0  0  0  0  0  0  0  0  0  0
   -4.0973   -1.6696   -0.5331 O   0  0  0  0  0  0  0  0  0  0  0  0
   -2.3865    2.1316    0.3505 O   0  0  0  0  0  0  0  0  0  0  0  0
    3.8197    1.4350   -0.3794 O   0  0  0  0  0  0  0  0  0  0  0  0
    6.8673   -0.5625    0.1493 N   0  0  0  0  0  0  0  0  0  0  0  0
   -4.7820    0.5863   -0.9753 C   0  0  0  0  0  0  0  0  0  0  0  0
   -3.7526   -0.3556   -0.5096 C   0  0  0  0  0  0  0  0  0  0  0  0
   -2.4705   -0.1964   -0.0367 C   0  0  0  0  0  0  0  0  0  0  0  0
   -5.7042    1.0764    0.1636 C   0  0  0  0  0  0  0  0  0  0  0  0
   -1.9864   -1.4992    0.2536 C   0  0  0  0  0  0  0  0  0  0  0  0
   -3.0234   -2.3685   -0.0688 C   0  0  0  0  0  0  0  0  0  0  0  0
   -6.7993    2.0198   -0.3340 C   0  0  0  0  0  0  0  0  0  0  0  0
   -1.7968    1.0606    0.1161 C   0  0  0  0  0  0  0  0  0  0  0  0
   -0.7879   -2.0392    0.7520 C   0  0  0  0  0  0  0  0  0  0  0  0
   -0.3106    1.1606   -0.0151 C   0  0  0  0  0  0  0  0  0  0  0  0
   -2.9543   -3.7535    0.0709 C   0  0  0  0  0  0  0  0  0  0  0  0
   -7.7163    2.4555    0.7978 C   0  0  0  0  0  0  0  0  0  0  0  0
   -0.6885   -3.4291    0.9040 C   0  0  0  0  0  0  0  0  0  0  0  0
   -1.7539   -4.2687    0.5689 C   0  0  0  0  0  0  0  0  0  0  0  0
    0.3104    0.7922   -1.2086 C   0  0  0  0  0  0  0  0  0  0  0  0
    0.4548    1.6212    1.0561 C   0  0  0  0  0  0  0  0  0  0  0  0
    2.4622    1.3452   -0.2597 C   0  0  0  0  0  0  0  0  0  0  0  0
    1.8413    1.7136    0.9338 C   0  0  0  0  0  0  0  0  0  0  0  0
    1.6968    0.8845   -1.3308 C   0  0  0  0  0  0  0  0  0  0  0  0
    4.5770    0.2868   -0.0080 C   0  0  0  0  0  0  0  0  0  0  0  0
    6.0515    0.5799   -0.2343 C   0  0  0  0  0  0  0  0  0  0  0  0
    8.2848   -0.2741   -0.0257 C   0  0  0  0  0  0  0  0  0  0  0  0
    9.1406   -1.4643    0.3737 C   0  0  0  0  0  0  0  0  0  0  0  0
   -5.3943    0.1034   -1.7475 H   0  0  0  0  0  0  0  0  0  0  0  0
   -4.3109    1.4501   -1.4593 H   0  0  0  0  0  0  0  0  0  0  0  0
   -5.1043    1.5826    0.9303 H   0  0  0  0  0  0  0  0  0  0  0  0
   -6.1656    0.2080    0.6518 H   0  0  0  0  0  0  0  0  0  0  0  0
   -6.3447    2.9050   -0.7935 H   0  0  0  0  0  0  0  0  0  0  0  0
   -7.3951    1.5218   -1.1077 H   0  0  0  0  0  0  0  0  0  0  0  0
    0.0543   -1.4161    1.0326 H   0  0  0  0  0  0  0  0  0  0  0  0
   -3.7848   -4.3981   -0.1910 H   0  0  0  0  0  0  0  0  0  0  0  0
   -7.1554    2.9833    1.5757 H   0  0  0  0  0  0  0  0  0  0  0  0
   -8.4906    3.1304    0.4199 H   0  0  0  0  0  0  0  0  0  0  0  0
   -8.2114    1.5932    1.2558 H   0  0  0  0  0  0  0  0  0  0  0  0
    0.2317   -3.8592    1.2911 H   0  0  0  0  0  0  0  0  0  0  0  0
   -1.6481   -5.3430    0.6981 H   0  0  0  0  0  0  0  0  0  0  0  0
   -0.2957    0.4390   -2.0402 H   0  0  0  0  0  0  0  0  0  0  0  0
   -0.0410    1.9027    1.9827 H   0  0  0  0  0  0  0  0  0  0  0  0
    4.2705   -0.5808   -0.6037 H   0  0  0  0  0  0  0  0  0  0  0  0
    4.4017    0.0409    1.0456 H   0  0  0  0  0  0  0  0  0  0  0  0
    6.3282    1.4667    0.3497 H   0  0  0  0  0  0  0  0  0  0  0  0
    6.2102    0.8378   -1.2890 H   0  0  0  0  0  0  0  0  0  0  0  0
    6.6081   -1.3762   -0.4076 H   0  0  0  0  0  0  0  0  0  0  0  0
    8.5738    0.5847    0.5913 H   0  0  0  0  0  0  0  0  0  0  0  0
    8.4971   -0.0222   -1.0716 H   0  0  0  0  0  0  0  0  0  0  0  0
   10.2017   -1.2279    0.2443 H   0  0  0  0  0  0  0  0  0  0  0  0
    8.9125   -2.3407   -0.2423 H   0  0  0  0  0  0  0  0  0  0  0  0
    8.9798   -1.7319    1.4234 H   0  0  0  0  0  0  0  0  0  0  0  0
  1 24  1  0  0  0  0
  2 25  1  0  0  0  0
  3  8  1  0  0  0  0
  3 12  1  0  0  0  0
  4 14  2  0  0  0  0
  5 23  1  0  0  0  0
  5 26  1  0  0  0  0
  6 27  1  0  0  0  0
  6 28  1  0  0  0  0
  6 49  1  0  0  0  0
  7  8  1  0  0  0  0
  7 10  1  0  0  0  0
  7 30  1  0  0  0  0
  7 31  1  0  0  0  0
  8  9  2  0  0  0  0
  9 11  1  0  0  0  0
  9 14  1  0  0  0  0
 10 13  1  0  0  0  0
 10 32  1  0  0  0  0
 10 33  1  0  0  0  0
 11 12  1  0  0  0  0
 11 15  2  0  0  0  0
 12 17  2  0  0  0  0
 13 18  1  0  0  0  0
 13 34  1  0  0  0  0
 13 35  1  0  0  0  0
 14 16  1  0  0  0  0
 15 19  1  0  0  0  0
 15 36  1  0  0  0  0
 16 21  2  0  0  0  0
 16 22  1  0  0  0  0
 17 20  1  0  0  0  0
 17 37  1  0  0  0  0
 18 38  1  0  0  0  0
 18 39  1  0  0  0  0
 18 40  1  0  0  0  0
 19 20  2  0  0  0  0
 19 41  1  0  0  0  0
 20 42  1  0  0  0  0
 21 25  1  0  0  0  0
 21 43  1  0  0  0  0
 22 24  2  0  0  0  0
 22 44  1  0  0  0  0
 23 24  1  0  0  0  0
 23 25  2  0  0  0  0
 26 27  1  0  0  0  0
 26 45  1  0  0  0  0
 26 46  1  0  0  0  0
 27 47  1  0  0  0  0
 27 48  1  0  0  0  0
 28 29  1  0  0  0  0
 28 50  1  0  0  0  0
 28 51  1  0  0  0  0
 29 52  1  0  0  0  0
 29 53  1  0  0  0  0
 29 54  1  0  0  0  0
M  END
> <PUBCHEM_COMPOUND_CID>
104774

> <PUBCHEM_CONFORMER_RMSD>
1

> <PUBCHEM_CONFORMER_DIVERSEORDER>
1
106
28
54
89
31
93
45
97
48
107
85
73
83
29
26
57
21
59
103
69
96
98
77
27
95
84
9
101
71
100
109
22
108
7
41
60
92
81
67
50
46
23
82
112
58
70
53
110
12
10
19
68
40
52
55
47
88
35
5
86
61
34
30
104
49
20
14
65
111
25
37
74
36
6
15
78
63
105
75
18
62
38
8
91
43
24
4
2
102
42
39
66
32
17
72
13
99
56
80
76
11
33
79
16
44
90
51
64
87
3
113
94

> <PUBCHEM_MMFF94_PARTIAL_CHARGES>
31
1 -0.08
12 0.14
14 0.57
15 -0.15
16 0.09
17 -0.15
19 -0.15
2 -0.08
20 -0.15
21 -0.15
22 -0.15
23 0.08
24 0.08
25 0.08
26 0.28
27 0.27
28 0.27
3 -0.28
36 0.15
37 0.15
4 -0.57
41 0.15
42 0.15
43 0.15
44 0.15
49 0.36
5 -0.36
6 -0.9
7 0.18
8 -0.04
9 -0.09

> <PUBCHEM_EFFECTIVE_ROTOR_COUNT>
10

> <PUBCHEM_PHARMACOPHORE_FEATURES>
11
1 1 hydrophobe
1 18 hydrophobe
1 2 hydrophobe
1 3 acceptor
1 4 acceptor
1 5 acceptor
1 6 cation
1 6 donor
5 3 8 9 11 12 rings
6 11 12 15 17 19 20 rings
6 16 21 22 23 24 25 rings

> <PUBCHEM_HEAVY_ATOM_COUNT>
29

> <PUBCHEM_ATOM_DEF_STEREO_COUNT>
0

> <PUBCHEM_ATOM_UDEF_STEREO_COUNT>
0

> <PUBCHEM_BOND_DEF_STEREO_COUNT>
0

> <PUBCHEM_BOND_UDEF_STEREO_COUNT>
0

> <PUBCHEM_ISOTOPIC_ATOM_COUNT>
0

> <PUBCHEM_COMPONENT_COUNT>
1

> <PUBCHEM_CACTVS_TAUTO_COUNT>
1

> <PUBCHEM_CONFORMER_ID>
0001994600000001

> <PUBCHEM_MMFF94_ENERGY>
59.6597

> <PUBCHEM_FEATURE_SELFOVERLAP>
55.923

> <PUBCHEM_SHAPE_FINGERPRINT>
10165383 225 18335981979228153517
10369192 42 13045943499872903930
10674148 151 18333165064538852960
11045977 3 18201152256594578304
11796584 16 18410577314405330902
12202916 173 17917990555784290662
12422481 6 17532352194434804109
12643181 29 18409162221576543882
14790565 3 18410014291675297049
14866123 147 18265057010847360523
15230672 131 18261385625246642306
15297060 5 18413106147556569282
15849732 13 17530687588905388116
15927050 60 18411696583173513815
18603816 31 18201422714816918046
21781051 124 17969526912515773059
21781055 127 18192452795440683357
23559900 14 18268141136246110288
249057 3 18187366528129038260
335352 9 18410571786429142629
392239 28 12822732842055136350
4073 2 18339919450251757472
5265222 85 18261400000485870484
5385378 56 18265060133520147529
559249 180 18335983142188247014
59521270 166 18041558027953759804
59755656 520 18409726262456874821
6371380 46 18342734113496986865
7226269 152 18272373074933834841

> <PUBCHEM_SHAPE_MULTIPOLES>
598.09
18.49
4
1.86
22.15
4.45
0.93
-3.6
-0.99
-5.01
-2.19
2.14
-0.88
0.75

> <PUBCHEM_SHAPE_SELFOVERLAP>
1222.708

> <PUBCHEM_SHAPE_VOLUME>
353.9

> <PUBCHEM_COORDINATE_TYPE>
2
5
10

$$$$