5320462
  -OEChem-03242010103D

 41 43  0     0  0  0  0  0  0999 V2000
    0.4049    0.8788   -0.0738 O   0  0  0  0  0  0  0  0  0  0  0  0
    1.8876   -2.4566    0.4398 O   0  0  0  0  0  0  0  0  0  0  0  0
   -5.0338   -0.0744    0.0395 O   0  0  0  0  0  0  0  0  0  0  0  0
   -4.0488    2.4823   -0.3306 O   0  0  0  0  0  0  0  0  0  0  0  0
   -3.3252   -2.1772    0.3547 O   0  0  0  0  0  0  0  0  0  0  0  0
   -0.8476   -2.9575    0.4899 O   0  0  0  0  0  0  0  0  0  0  0  0
    6.6671    1.5325   -0.1347 O   0  0  0  0  0  0  0  0  0  0  0  0
   -1.4277   -0.6975    0.1467 C   0  0  0  0  0  0  0  0  0  0  0  0
   -0.9354    0.5923   -0.0397 C   0  0  0  0  0  0  0  0  0  0  0  0
    1.3076   -0.1626    0.0715 C   0  0  0  0  0  0  0  0  0  0  0  0
   -0.4746   -1.8050    0.3157 C   0  0  0  0  0  0  0  0  0  0  0  0
   -2.8051   -0.9299    0.1741 C   0  0  0  0  0  0  0  0  0  0  0  0
    0.9639   -1.4490    0.2660 C   0  0  0  0  0  0  0  0  0  0  0  0
   -1.8190    1.6601   -0.1998 C   0  0  0  0  0  0  0  0  0  0  0  0
   -3.6868    0.1397    0.0133 C   0  0  0  0  0  0  0  0  0  0  0  0
   -3.1949    1.4322   -0.1732 C   0  0  0  0  0  0  0  0  0  0  0  0
    2.7117    0.2819    0.0171 C   0  0  0  0  0  0  0  0  0  0  0  0
    3.3889    0.3090   -1.2023 C   0  0  0  0  0  0  0  0  0  0  0  0
    3.3646    0.6756    1.1856 C   0  0  0  0  0  0  0  0  0  0  0  0
    4.7180    0.7293   -1.2531 C   0  0  0  0  0  0  0  0  0  0  0  0
    4.6936    1.0960    1.1346 C   0  0  0  0  0  0  0  0  0  0  0  0
    5.3703    1.1227   -0.0848 C   0  0  0  0  0  0  0  0  0  0  0  0
    2.2486   -3.0285   -0.8029 C   0  0  0  0  0  0  0  0  0  0  0  0
   -5.6672   -0.3593   -1.2053 C   0  0  0  0  0  0  0  0  0  0  0  0
   -4.4607    3.1652    0.8517 C   0  0  0  0  0  0  0  0  0  0  0  0
   -1.4369    2.6675   -0.3458 H   0  0  0  0  0  0  0  0  0  0  0  0
    2.8919    0.0163   -2.1240 H   0  0  0  0  0  0  0  0  0  0  0  0
    2.8501    0.6604    2.1435 H   0  0  0  0  0  0  0  0  0  0  0  0
    5.2333    0.7478   -2.2098 H   0  0  0  0  0  0  0  0  0  0  0  0
    5.1965    1.4012    2.0482 H   0  0  0  0  0  0  0  0  0  0  0  0
   -2.6191   -2.8353    0.4413 H   0  0  0  0  0  0  0  0  0  0  0  0
    2.7274   -2.3129   -1.4742 H   0  0  0  0  0  0  0  0  0  0  0  0
    1.3799   -3.4759   -1.2989 H   0  0  0  0  0  0  0  0  0  0  0  0
    2.9675   -3.8303   -0.6079 H   0  0  0  0  0  0  0  0  0  0  0  0
   -6.7341   -0.5104   -1.0198 H   0  0  0  0  0  0  0  0  0  0  0  0
   -5.2568   -1.2725   -1.6477 H   0  0  0  0  0  0  0  0  0  0  0  0
   -5.5487    0.4792   -1.8987 H   0  0  0  0  0  0  0  0  0  0  0  0
   -4.9876    2.4838    1.5270 H   0  0  0  0  0  0  0  0  0  0  0  0
   -5.1438    3.9686    0.5629 H   0  0  0  0  0  0  0  0  0  0  0  0
   -3.5973    3.6057    1.3604 H   0  0  0  0  0  0  0  0  0  0  0  0
    6.9767    1.4875   -1.0557 H   0  0  0  0  0  0  0  0  0  0  0  0
  1  9  1  0  0  0  0
  1 10  1  0  0  0  0
  2 13  1  0  0  0  0
  2 23  1  0  0  0  0
  3 15  1  0  0  0  0
  3 24  1  0  0  0  0
  4 16  1  0  0  0  0
  4 25  1  0  0  0  0
  5 12  1  0  0  0  0
  5 31  1  0  0  0  0
  6 11  2  0  0  0  0
  7 22  1  0  0  0  0
  7 41  1  0  0  0  0
  8  9  1  0  0  0  0
  8 11  1  0  0  0  0
  8 12  2  0  0  0  0
  9 14  2  0  0  0  0
 10 13  2  0  0  0  0
 10 17  1  0  0  0  0
 11 13  1  0  0  0  0
 12 15  1  0  0  0  0
 14 16  1  0  0  0  0
 14 26  1  0  0  0  0
 15 16  2  0  0  0  0
 17 18  2  0  0  0  0
 17 19  1  0  0  0  0
 18 20  1  0  0  0  0
 18 27  1  0  0  0  0
 19 21  2  0  0  0  0
 19 28  1  0  0  0  0
 20 22  2  0  0  0  0
 20 29  1  0  0  0  0
 21 22  1  0  0  0  0
 21 30  1  0  0  0  0
 23 32  1  0  0  0  0
 23 33  1  0  0  0  0
 23 34  1  0  0  0  0
 24 35  1  0  0  0  0
 24 36  1  0  0  0  0
 24 37  1  0  0  0  0
 25 38  1  0  0  0  0
 25 39  1  0  0  0  0
 25 40  1  0  0  0  0
M  END
> <PUBCHEM_COMPOUND_CID>
5320462

> <PUBCHEM_CONFORMER_RMSD>
0.8

> <PUBCHEM_CONFORMER_DIVERSEORDER>
1
2

> <PUBCHEM_MMFF94_PARTIAL_CHARGES>
32
1 -0.16
10 0.05
11 0.47
12 0.08
13 0.09
14 -0.15
15 0.08
16 0.08
17 0.03
18 -0.15
19 -0.15
2 -0.36
20 -0.15
21 -0.15
22 0.08
23 0.28
24 0.28
25 0.28
26 0.15
27 0.15
28 0.15
29 0.15
3 -0.36
30 0.15
31 0.45
4 -0.36
41 0.45
5 -0.53
6 -0.57
7 -0.53
8 0.09
9 0.08

> <PUBCHEM_EFFECTIVE_ROTOR_COUNT>
4

> <PUBCHEM_PHARMACOPHORE_FEATURES>
10
1 1 acceptor
1 2 acceptor
1 3 acceptor
1 4 acceptor
1 5 donor
1 6 acceptor
1 7 donor
6 1 8 9 10 11 13 rings
6 17 18 19 20 21 22 rings
6 8 9 12 14 15 16 rings

> <PUBCHEM_HEAVY_ATOM_COUNT>
25

> <PUBCHEM_ATOM_DEF_STEREO_COUNT>
0

> <PUBCHEM_ATOM_UDEF_STEREO_COUNT>
0

> <PUBCHEM_BOND_DEF_STEREO_COUNT>
0

> <PUBCHEM_BOND_UDEF_STEREO_COUNT>
0

> <PUBCHEM_ISOTOPIC_ATOM_COUNT>
0

> <PUBCHEM_COMPONENT_COUNT>
1

> <PUBCHEM_CACTVS_TAUTO_COUNT>
21

> <PUBCHEM_CONFORMER_ID>
00512F0E00000001

> <PUBCHEM_MMFF94_ENERGY>
104.5593

> <PUBCHEM_FEATURE_SELFOVERLAP>
50.785

> <PUBCHEM_SHAPE_FINGERPRINT>
10319926 262 18267847541419869040
10366900 7 18271517684867306593
10411042 1 17544480107535901506
10498660 4 18411700950358499936
10670039 82 18261401014124916204
11963148 33 18191018100555672307
12107183 9 18116703016451270298
12236239 1 17458902756141179088
12390115 104 18342469101435967737
12403259 415 18130506435571143528
12403814 3 17240194448051767925
12596602 18 16805321145215201944
12788726 201 17173512538588659410
13140716 1 17903644325496765531
13540713 5 18195795273104327539
14341114 328 17531240678035702704
14790565 3 18123760755398647633
15131766 46 15938112212932144430
15196674 1 18337671914654346195
15536298 74 18339361851257698919
17980427 23 17822016453533356668
18608769 82 18338523044798944147
200 152 14836133160667185936
20645477 70 16988574476695529356
20691752 17 17386857114248383491
21033648 29 17703779336690288784
21279426 13 18270687450683167796
22122407 14 15864075372804026157
22182313 1 18265359298359932994
22393880 68 18200881677517368310
23366157 5 17896884262022211850
23402539 116 18337103587502357262
23559900 14 18341047540243657136
25147074 1 18337097965506315131
2916195 48 18201432614906477680
34934 24 18409441497255776647
350125 39 18408887365049724577
469060 322 18191328128705757145
474 4 17748549246881016498
5104073 3 18263086513868004233
5265222 85 18196101156712406660
58051976 378 18409167722828023111
59755656 215 18410572894251201535
7808743 9 18408323298072386576
8863177 126 12246811933366501373
9709674 26 18411139091658931719
9981440 41 18260552233581065986

> <PUBCHEM_SHAPE_MULTIPOLES>
473.4
12.49
3
0.99
4.08
0.98
0.1
-7.69
1.62
-1.6
-0.37
0.54
-0.1
-0.05

> <PUBCHEM_SHAPE_SELFOVERLAP>
1040.849

> <PUBCHEM_SHAPE_VOLUME>
255.9

> <PUBCHEM_COORDINATE_TYPE>
2
5
10

$$$$