
 OpenBabel03292020543D

190190  0  0  1  0  0  0  0  0999 V2000
    5.8067    0.1549    6.5770 C   0  0  0  0  0  0  0  0  0  0  0  0
    7.2893   -0.1724    6.4710 C   0  0  0  0  0  0  0  0  0  0  0  0
    7.8162   -1.4155    6.3512 C   0  0  0  0  0  0  0  0  0  0  0  0
    9.3227   -1.9006    6.3744 C   0  0  0  0  0  0  0  0  0  0  0  0
   10.3221   -1.8317    5.0908 C   0  0  1  0  0  0  0  0  0  0  0  0
    9.5312   -1.0154    4.0156 C   0  0  0  0  0  0  0  0  0  0  0  0
   12.1401   -2.1967    5.1939 C   0  0  1  0  0  0  0  0  0  0  0  0
   12.2103   -3.2212    6.2055 O   0  0  0  0  0  0  0  0  0  0  0  0
   13.7482   -1.2426    5.3361 C   0  0  1  0  0  0  0  0  0  0  0  0
   15.5838   -0.8510    4.9021 C   0  0  0  0  0  0  0  0  0  0  0  0
   15.9519    0.2708    5.3353 O   0  0  0  0  0  0  0  0  0  0  0  0
   16.7325   -1.5662    4.2682 N   0  0  0  0  0  0  0  0  0  0  0  0
   18.4445   -1.0784    4.0067 C   0  0  1  0  0  0  0  0  0  0  0  0
   18.6162   -0.1020    2.7983 C   0  0  0  0  0  0  0  0  0  0  0  0
   20.0065    0.6026    2.5693 C   0  0  0  0  0  0  0  0  0  0  0  0
   19.7491   -2.1848    3.8385 C   0  0  0  0  0  0  0  0  0  0  0  0
   19.4538   -3.4034    3.9840 O   0  0  0  0  0  0  0  0  0  0  0  0
   21.1550   -1.7663    3.7224 N   0  0  0  0  0  0  0  0  0  0  0  0
   21.8153   -1.4614    2.4081 C   0  0  0  0  0  0  0  0  0  0  0  0
   22.1493   -2.5763    4.4606 C   0  0  0  0  0  0  0  0  0  0  0  0
   22.2759   -2.4450    5.9702 C   0  0  0  0  0  0  0  0  0  0  0  0
   22.2692   -3.4388    6.6914 O   0  0  0  0  0  0  0  0  0  0  0  0
   22.5831   -1.2402    6.5451 N   0  0  0  0  0  0  0  0  0  0  0  0
   22.6500    0.1100    5.9757 C   0  0  1  0  0  0  0  0  0  0  0  0
   21.2952    0.8349    6.2358 C   0  0  0  0  0  0  0  0  0  0  0  0
   20.3928    0.2874    7.3608 C   0  0  0  0  0  0  0  0  0  0  0  0
   21.2573    2.3496    6.2421 C   0  0  0  0  0  0  0  0  0  0  0  0
   24.1628    0.5393    6.0891 C   0  0  0  0  0  0  0  0  0  0  0  0
   24.9806   -0.1067    5.4025 O   0  0  0  0  0  0  0  0  0  0  0  0
   24.7630    1.4063    6.9384 N   0  0  0  0  0  0  0  0  0  0  0  0
   24.2770    2.5087    7.7974 C   0  0  2  0  0  0  0  0  0  0  0  0
   23.3194    1.8911    8.8471 C   0  0  0  0  0  0  0  0  0  0  0  0
   22.5813    2.8499    9.7709 C   0  0  0  0  0  0  0  0  0  0  0  0
   23.9868    0.7910    9.6975 C   0  0  0  0  0  0  0  0  0  0  0  0
   23.8894    3.6794    6.7592 C   0  0  0  0  0  0  0  0  0  0  0  0
   23.9720    3.4550    5.5431 O   0  0  0  0  0  0  0  0  0  0  0  0
   23.4375    4.9261    7.1740 N   0  0  0  0  0  0  0  0  0  0  0  0
   23.9152    5.4977    8.4359 C   0  0  0  0  0  0  0  0  0  0  0  0
   22.8365    5.8879    6.1474 C   0  0  2  0  0  0  0  0  0  0  0  0
   23.9457    6.8108    5.5336 C   0  0  0  0  0  0  0  0  0  0  0  0
   23.5750    7.8020    4.4079 C   0  0  0  0  0  0  0  0  0  0  0  0
   22.6231    8.9308    4.8165 C   0  0  0  0  0  0  0  0  0  0  0  0
   24.8353    8.4447    3.8211 C   0  0  0  0  0  0  0  0  0  0  0  0
   21.6707    6.7712    6.7377 C   0  0  0  0  0  0  0  0  0  0  0  0
   21.8660    7.5036    7.7227 O   0  0  0  0  0  0  0  0  0  0  0  0
   20.4404    6.8516    6.1844 N   0  0  0  0  0  0  0  0  0  0  0  0
   19.7252    6.1451    5.0943 C   0  0  1  0  0  0  0  0  0  0  0  0
   18.2663    6.0048    5.4935 C   0  0  0  0  0  0  0  0  0  0  0  0
   20.0331    6.6200    3.6285 C   0  0  0  0  0  0  0  0  0  0  0  0
   21.1987    6.4779    3.2269 O   0  0  0  0  0  0  0  0  0  0  0  0
   19.2061    7.0475    2.6381 N   0  0  0  0  0  0  0  0  0  0  0  0
   17.7719    7.3585    2.4064 C   0  0  2  0  0  0  0  0  0  0  0  0
   17.3452    8.4957    3.3201 C   0  0  0  0  0  0  0  0  0  0  0  0
   16.6942    6.2010    2.3219 C   0  0  0  0  0  0  0  0  0  0  0  0
   15.8342    6.0878    3.1981 O   0  0  0  0  0  0  0  0  0  0  0  0
   16.7929    5.2560    1.2905 N   0  0  0  0  0  0  0  0  0  0  0  0
   16.7520    5.6636   -0.1062 C   0  0  0  0  0  0  0  0  0  0  0  0
   16.3344    3.8649    1.5415 C   0  0  1  0  0  0  0  0  0  0  0  0
   16.8614    3.3064    2.8229 C   0  0  0  0  0  0  0  0  0  0  0  0
   18.3100    2.9962    2.8836 C   0  0  0  0  0  0  0  0  0  0  0  0
   19.2877    3.9959    2.3550 C   0  0  0  0  0  0  0  0  0  0  0  0
   18.5834    2.6432    4.3439 C   0  0  0  0  0  0  0  0  0  0  0  0
   14.8379    3.5210    1.3737 C   0  0  0  0  0  0  0  0  0  0  0  0
   14.4434    3.4056    0.2033 O   0  0  0  0  0  0  0  0  0  0  0  0
   13.9607    3.4197    2.4489 N   0  0  0  0  0  0  0  0  0  0  0  0
   14.2156    3.2475    3.8947 C   0  0  0  0  0  0  0  0  0  0  0  0
   12.5224    3.3167    2.1775 C   0  0  1  0  0  0  0  0  0  0  0  0
   11.9465    4.2167    1.0662 C   0  0  0  0  0  0  0  0  0  0  0  0
   10.4140    4.3571    1.1896 C   0  0  0  0  0  0  0  0  0  0  0  0
    9.9971    5.0844    2.4672 C   0  0  0  0  0  0  0  0  0  0  0  0
    9.7969    4.9623   -0.0582 C   0  0  0  0  0  0  0  0  0  0  0  0
   11.9320    1.8865    2.0873 C   0  0  0  0  0  0  0  0  0  0  0  0
   10.7142    1.6884    2.1654 O   0  0  0  0  0  0  0  0  0  0  0  0
   12.7825    0.8127    1.6989 N   0  0  0  0  0  0  0  0  0  0  0  0
   12.4335    0.6250    0.3003 C   0  0  0  0  0  0  0  0  0  0  0  0
   12.6282   -0.4389    2.5774 C   0  0  1  0  0  0  0  0  0  0  0  0
   13.5401   -1.7201    2.1131 C   0  0  0  0  0  0  0  0  0  0  0  0
   14.0690   -2.9104    2.9748 C   0  0  0  0  0  0  0  0  0  0  0  0
   12.7557   -2.5565    1.0502 C   0  0  0  0  0  0  0  0  0  0  0  0
   12.3853    0.1690    4.0613 C   0  0  0  0  0  0  0  0  0  0  0  0
   11.3714    0.8404    4.3007 O   0  0  0  0  0  0  0  0  0  0  0  0
   13.2155    0.0709    5.1436 N   0  0  0  0  0  0  0  0  0  0  0  0
   12.7287    0.7346    6.3608 C   0  0  0  0  0  0  0  0  0  0  0  0
    5.6298    1.2287    6.4181 H   0  0  0  0  0  0  0  0  0  0  0  0
    5.4195   -0.0716    7.5789 H   0  0  0  0  0  0  0  0  0  0  0  0
    5.1907   -0.3744    5.8405 H   0  0  0  0  0  0  0  0  0  0  0  0
    7.9426    0.6962    6.5073 H   0  0  0  0  0  0  0  0  0  0  0  0
    7.0773   -2.2232    6.3266 H   0  0  0  0  0  0  0  0  0  0  0  0
    9.1857   -2.9801    6.5533 H   0  0  0  0  0  0  0  0  0  0  0  0
    9.8026   -1.5083    7.2708 H   0  0  0  0  0  0  0  0  0  0  0  0
   10.0896   -2.8292    4.6668 H   0  0  0  0  0  0  0  0  0  0  0  0
    9.2889    0.0065    4.3303 H   0  0  0  0  0  0  0  0  0  0  0  0
    8.5381   -1.4748    3.8561 H   0  0  0  0  0  0  0  0  0  0  0  0
    9.9402   -1.0175    3.0146 H   0  0  0  0  0  0  0  0  0  0  0  0
   12.2037   -2.7061    4.2463 H   0  0  0  0  0  0  0  0  0  0  0  0
   11.3767   -3.7258    6.1692 H   0  0  0  0  0  0  0  0  0  0  0  0
   13.9252   -1.4054    6.4123 H   0  0  0  0  0  0  0  0  0  0  0  0
   16.6766   -2.5751    4.2556 H   0  0  0  0  0  0  0  0  0  0  0  0
   18.6583   -0.5361    4.9350 H   0  0  0  0  0  0  0  0  0  0  0  0
   17.8188    0.6120    2.9384 H   0  0  0  0  0  0  0  0  0  0  0  0
   18.3774   -0.6043    1.8566 H   0  0  0  0  0  0  0  0  0  0  0  0
   20.7110    0.5000    3.3884 H   0  0  0  0  0  0  0  0  0  0  0  0
   20.0695    1.6709    2.4170 H   0  0  0  0  0  0  0  0  0  0  0  0
   20.4302    0.3175    1.6038 H   0  0  0  0  0  0  0  0  0  0  0  0
   22.3935   -0.5257    2.5109 H   0  0  0  0  0  0  0  0  0  0  0  0
   21.1302   -1.4431    1.5660 H   0  0  0  0  0  0  0  0  0  0  0  0
   22.5773   -2.2099    2.1417 H   0  0  0  0  0  0  0  0  0  0  0  0
   23.1643   -2.2916    4.1250 H   0  0  0  0  0  0  0  0  0  0  0  0
   22.0333   -3.6276    4.1746 H   0  0  0  0  0  0  0  0  0  0  0  0
   22.7556   -1.3368    7.5381 H   0  0  0  0  0  0  0  0  0  0  0  0
   22.6243   -0.0089    4.8860 H   0  0  0  0  0  0  0  0  0  0  0  0
   20.7017    0.5640    5.3606 H   0  0  0  0  0  0  0  0  0  0  0  0
   20.7160    0.5767    8.3600 H   0  0  0  0  0  0  0  0  0  0  0  0
   20.3046   -0.8018    7.3293 H   0  0  0  0  0  0  0  0  0  0  0  0
   19.3725    0.6716    7.2286 H   0  0  0  0  0  0  0  0  0  0  0  0
   21.7539    2.7845    7.0919 H   0  0  0  0  0  0  0  0  0  0  0  0
   20.2343    2.7130    6.3688 H   0  0  0  0  0  0  0  0  0  0  0  0
   21.6546    2.7608    5.3116 H   0  0  0  0  0  0  0  0  0  0  0  0
   25.7519    1.4526    6.7165 H   0  0  0  0  0  0  0  0  0  0  0  0
   25.1756    2.8595    8.3213 H   0  0  0  0  0  0  0  0  0  0  0  0
   22.5594    1.3498    8.3077 H   0  0  0  0  0  0  0  0  0  0  0  0
   23.2644    3.3581   10.4558 H   0  0  0  0  0  0  0  0  0  0  0  0
   21.8572    2.2937   10.3801 H   0  0  0  0  0  0  0  0  0  0  0  0
   22.0070    3.5920    9.2119 H   0  0  0  0  0  0  0  0  0  0  0  0
   24.6893    1.2085   10.4229 H   0  0  0  0  0  0  0  0  0  0  0  0
   24.5207    0.0579    9.0833 H   0  0  0  0  0  0  0  0  0  0  0  0
   23.2221    0.2272   10.2477 H   0  0  0  0  0  0  0  0  0  0  0  0
   24.4869    4.7750    9.0200 H   0  0  0  0  0  0  0  0  0  0  0  0
   23.0705    5.8353    9.0369 H   0  0  0  0  0  0  0  0  0  0  0  0
   24.5908    6.3308    8.2289 H   0  0  0  0  0  0  0  0  0  0  0  0
   22.4100    5.2724    5.3285 H   0  0  0  0  0  0  0  0  0  0  0  0
   24.3967    7.3901    6.3501 H   0  0  0  0  0  0  0  0  0  0  0  0
   24.7358    6.1516    5.1611 H   0  0  0  0  0  0  0  0  0  0  0  0
   23.1496    7.2399    3.5807 H   0  0  0  0  0  0  0  0  0  0  0  0
   22.9115    9.3711    5.7763 H   0  0  0  0  0  0  0  0  0  0  0  0
   21.5902    8.5980    4.8878 H   0  0  0  0  0  0  0  0  0  0  0  0
   22.6071    9.7324    4.0697 H   0  0  0  0  0  0  0  0  0  0  0  0
   25.3774    9.0203    4.5763 H   0  0  0  0  0  0  0  0  0  0  0  0
   24.5689    9.1226    3.0007 H   0  0  0  0  0  0  0  0  0  0  0  0
   25.5023    7.6827    3.4074 H   0  0  0  0  0  0  0  0  0  0  0  0
   19.8976    7.6025    6.6358 H   0  0  0  0  0  0  0  0  0  0  0  0
   20.1411    5.1328    5.1118 H   0  0  0  0  0  0  0  0  0  0  0  0
   17.8200    6.9597    5.7700 H   0  0  0  0  0  0  0  0  0  0  0  0
   18.1937    5.3669    6.3847 H   0  0  0  0  0  0  0  0  0  0  0  0
   17.6726    5.5476    4.7161 H   0  0  0  0  0  0  0  0  0  0  0  0
   19.7700    7.1237    1.7966 H   0  0  0  0  0  0  0  0  0  0  0  0
   17.7773    7.7831    1.3960 H   0  0  0  0  0  0  0  0  0  0  0  0
   17.7940    8.4192    4.3105 H   0  0  0  0  0  0  0  0  0  0  0  0
   16.2604    8.5519    3.4307 H   0  0  0  0  0  0  0  0  0  0  0  0
   17.6958    9.4457    2.9042 H   0  0  0  0  0  0  0  0  0  0  0  0
   17.1730    6.6558   -0.2581 H   0  0  0  0  0  0  0  0  0  0  0  0
   15.7062    5.6816   -0.4308 H   0  0  0  0  0  0  0  0  0  0  0  0
   17.3016    4.9400   -0.7184 H   0  0  0  0  0  0  0  0  0  0  0  0
   16.8207    3.2656    0.7505 H   0  0  0  0  0  0  0  0  0  0  0  0
   16.3780    2.3330    2.9879 H   0  0  0  0  0  0  0  0  0  0  0  0
   16.6517    3.9857    3.6421 H   0  0  0  0  0  0  0  0  0  0  0  0
   18.3797    2.1948    2.1637 H   0  0  0  0  0  0  0  0  0  0  0  0
   18.9037    4.9267    2.6865 H   0  0  0  0  0  0  0  0  0  0  0  0
   19.3311    4.0026    1.2628 H   0  0  0  0  0  0  0  0  0  0  0  0
   20.3028    3.8595    2.7392 H   0  0  0  0  0  0  0  0  0  0  0  0
   18.3525    3.4644    5.0220 H   0  0  0  0  0  0  0  0  0  0  0  0
   19.6257    2.3920    4.4608 H   0  0  0  0  0  0  0  0  0  0  0  0
   17.9824    1.8046    4.7041 H   0  0  0  0  0  0  0  0  0  0  0  0
   15.2090    3.0841    4.2800 H   0  0  0  0  0  0  0  0  0  0  0  0
   13.7000    2.3418    4.1950 H   0  0  0  0  0  0  0  0  0  0  0  0
   13.7940    4.0911    4.4425 H   0  0  0  0  0  0  0  0  0  0  0  0
   12.1029    3.7169    3.1054 H   0  0  0  0  0  0  0  0  0  0  0  0
   12.1732    3.7918    0.0828 H   0  0  0  0  0  0  0  0  0  0  0  0
   12.4181    5.2083    1.1001 H   0  0  0  0  0  0  0  0  0  0  0  0
    9.9546    3.3727    1.2202 H   0  0  0  0  0  0  0  0  0  0  0  0
   10.4271    6.0884    2.5108 H   0  0  0  0  0  0  0  0  0  0  0  0
   10.3109    4.5456    3.3682 H   0  0  0  0  0  0  0  0  0  0  0  0
    8.9087    5.1578    2.5296 H   0  0  0  0  0  0  0  0  0  0  0  0
   10.1475    5.9782   -0.2393 H   0  0  0  0  0  0  0  0  0  0  0  0
    8.7062    4.9681    0.0408 H   0  0  0  0  0  0  0  0  0  0  0  0
   10.0373    4.3399   -0.9287 H   0  0  0  0  0  0  0  0  0  0  0  0
   12.6278    1.5499   -0.2494 H   0  0  0  0  0  0  0  0  0  0  0  0
   11.3543    0.4223    0.2097 H   0  0  0  0  0  0  0  0  0  0  0  0
   13.0083   -0.1636   -0.1634 H   0  0  0  0  0  0  0  0  0  0  0  0
   11.6274   -0.7846    2.3200 H   0  0  0  0  0  0  0  0  0  0  0  0
   14.4326   -1.2939    1.6436 H   0  0  0  0  0  0  0  0  0  0  0  0
   13.3270   -3.7067    3.1331 H   0  0  0  0  0  0  0  0  0  0  0  0
   14.5014   -2.7015    3.9349 H   0  0  0  0  0  0  0  0  0  0  0  0
   14.8784   -3.4205    2.4361 H   0  0  0  0  0  0  0  0  0  0  0  0
   11.7931   -2.8900    1.4597 H   0  0  0  0  0  0  0  0  0  0  0  0
   13.3064   -3.4680    0.7745 H   0  0  0  0  0  0  0  0  0  0  0  0
   12.5661   -2.0357    0.1184 H   0  0  0  0  0  0  0  0  0  0  0  0
   13.5214    0.7992    7.1053 H   0  0  0  0  0  0  0  0  0  0  0  0
   11.8779    0.1664    6.7591 H   0  0  0  0  0  0  0  0  0  0  0  0
   12.3702    1.7468    6.1364 H   0  0  0  0  0  0  0  0  0  0  0  0
  1  2  1  0  0  0  0
  1 84  1  0  0  0  0
  1 85  1  0  0  0  0
  1 86  1  0  0  0  0
  2  3  2  0  0  0  0
  2 87  1  0  0  0  0
  3  4  1  0  0  0  0
  3 88  1  0  0  0  0
  4  5  1  0  0  0  0
  4 89  1  0  0  0  0
  4 90  1  0  0  0  0
  5  6  1  0  0  0  0
  5  7  1  0  0  0  0
  5 91  1  6  0  0  0
  6 92  1  0  0  0  0
  6 93  1  0  0  0  0
  6 94  1  0  0  0  0
  7  8  1  0  0  0  0
  7 95  1  1  0  0  0
  8 96  1  0  0  0  0
  9 10  1  0  0  0  0
  9 82  1  0  0  0  0
  9  7  1  0  0  0  0
  9 97  1  1  0  0  0
 10 11  2  0  0  0  0
 10 12  1  0  0  0  0
 12 13  1  0  0  0  0
 12 98  1  0  0  0  0
 13 14  1  0  0  0  0
 13 16  1  0  0  0  0
 13 99  1  6  0  0  0
 14 15  1  0  0  0  0
 14100  1  0  0  0  0
 14101  1  0  0  0  0
 15102  1  0  0  0  0
 15103  1  0  0  0  0
 15104  1  0  0  0  0
 16 17  2  0  0  0  0
 16 18  1  0  0  0  0
 18 19  1  0  0  0  0
 18 20  1  0  0  0  0
 19105  1  0  0  0  0
 19106  1  0  0  0  0
 19107  1  0  0  0  0
 20 21  1  0  0  0  0
 20108  1  0  0  0  0
 20109  1  0  0  0  0
 21 22  2  0  0  0  0
 21 23  1  0  0  0  0
 23 24  1  0  0  0  0
 23110  1  0  0  0  0
 24 25  1  0  0  0  0
 24 28  1  0  0  0  0
 24111  1  6  0  0  0
 25 26  1  0  0  0  0
 25 27  1  0  0  0  0
 25112  1  0  0  0  0
 26113  1  0  0  0  0
 26114  1  0  0  0  0
 26115  1  0  0  0  0
 27116  1  0  0  0  0
 27117  1  0  0  0  0
 27118  1  0  0  0  0
 28 29  2  0  0  0  0
 28 30  1  0  0  0  0
 30 31  1  0  0  0  0
 30119  1  0  0  0  0
 31 35  1  0  0  0  0
 31 32  1  0  0  0  0
 31120  1  1  0  0  0
 32 33  1  0  0  0  0
 32 34  1  0  0  0  0
 32121  1  0  0  0  0
 33122  1  0  0  0  0
 33123  1  0  0  0  0
 33124  1  0  0  0  0
 34125  1  0  0  0  0
 34126  1  0  0  0  0
 34127  1  0  0  0  0
 35 36  2  0  0  0  0
 35 37  1  0  0  0  0
 37 38  1  0  0  0  0
 37 39  1  0  0  0  0
 38128  1  0  0  0  0
 38129  1  0  0  0  0
 38130  1  0  0  0  0
 39 44  1  0  0  0  0
 39 40  1  0  0  0  0
 39131  1  6  0  0  0
 40 41  1  0  0  0  0
 40132  1  0  0  0  0
 40133  1  0  0  0  0
 41 42  1  0  0  0  0
 41 43  1  0  0  0  0
 41134  1  0  0  0  0
 42135  1  0  0  0  0
 42136  1  0  0  0  0
 42137  1  0  0  0  0
 43138  1  0  0  0  0
 43139  1  0  0  0  0
 43140  1  0  0  0  0
 44 45  2  0  0  0  0
 44 46  1  0  0  0  0
 46 47  1  0  0  0  0
 46141  1  0  0  0  0
 47 48  1  0  0  0  0
 47 49  1  0  0  0  0
 47142  1  1  0  0  0
 48143  1  0  0  0  0
 48144  1  0  0  0  0
 48145  1  0  0  0  0
 49 50  2  0  0  0  0
 49 51  1  0  0  0  0
 51 52  1  0  0  0  0
 51146  1  0  0  0  0
 52 54  1  0  0  0  0
 52 53  1  0  0  0  0
 52147  1  6  0  0  0
 53148  1  0  0  0  0
 53149  1  0  0  0  0
 53150  1  0  0  0  0
 54 55  2  0  0  0  0
 54 56  1  0  0  0  0
 56 57  1  0  0  0  0
 56 58  1  0  0  0  0
 57151  1  0  0  0  0
 57152  1  0  0  0  0
 57153  1  0  0  0  0
 58 59  1  0  0  0  0
 58 63  1  0  0  0  0
 58154  1  6  0  0  0
 59 60  1  0  0  0  0
 59155  1  0  0  0  0
 59156  1  0  0  0  0
 60 61  1  0  0  0  0
 60 62  1  0  0  0  0
 60157  1  0  0  0  0
 61158  1  0  0  0  0
 61159  1  0  0  0  0
 61160  1  0  0  0  0
 62161  1  0  0  0  0
 62162  1  0  0  0  0
 62163  1  0  0  0  0
 63 64  2  0  0  0  0
 63 65  1  0  0  0  0
 65 66  1  0  0  0  0
 65 67  1  0  0  0  0
 66164  1  0  0  0  0
 66165  1  0  0  0  0
 66166  1  0  0  0  0
 67 68  1  0  0  0  0
 67 72  1  0  0  0  0
 67167  1  1  0  0  0
 68 69  1  0  0  0  0
 68168  1  0  0  0  0
 68169  1  0  0  0  0
 69 70  1  0  0  0  0
 69 71  1  0  0  0  0
 69170  1  0  0  0  0
 70171  1  0  0  0  0
 70172  1  0  0  0  0
 70173  1  0  0  0  0
 71174  1  0  0  0  0
 71175  1  0  0  0  0
 71176  1  0  0  0  0
 72 73  2  0  0  0  0
 72 74  1  0  0  0  0
 74 75  1  0  0  0  0
 74 76  1  0  0  0  0
 75177  1  0  0  0  0
 75178  1  0  0  0  0
 75179  1  0  0  0  0
 76 77  1  0  0  0  0
 76 80  1  0  0  0  0
 76180  1  6  0  0  0
 77 78  1  0  0  0  0
 77 79  1  0  0  0  0
 77181  1  0  0  0  0
 78182  1  0  0  0  0
 78183  1  0  0  0  0
 78184  1  0  0  0  0
 79185  1  0  0  0  0
 79186  1  0  0  0  0
 79187  1  0  0  0  0
 80 81  2  0  0  0  0
 80 82  1  0  0  0  0
 82 83  1  0  0  0  0
 83188  1  0  0  0  0
 83189  1  0  0  0  0
 83190  1  0  0  0  0
M  END
>  <Energy>
849.383

$$$$