11813472
  -OEChem-03242010103D

 85 86  0     1  0  0  0  0  0999 V2000
    1.5621    0.9338   -0.9505 O   0  0  0  0  0  0  0  0  0  0  0  0
   -0.4758    2.4588    0.6747 O   0  0  0  0  0  0  0  0  0  0  0  0
   -1.8005   -1.4038   -3.1704 O   0  0  0  0  0  0  0  0  0  0  0  0
   -3.0751    1.1029   -0.0383 O   0  0  0  0  0  0  0  0  0  0  0  0
    1.1162    2.6603    2.3293 O   0  0  0  0  0  0  0  0  0  0  0  0
    0.4478    1.9998   -2.6663 O   0  0  0  0  0  0  0  0  0  0  0  0
   -2.9998    0.3702   -4.2415 O   0  0  0  0  0  0  0  0  0  0  0  0
   -1.3035   -0.3426    0.3845 N   0  0  0  0  0  0  0  0  0  0  0  0
   -1.6285   -1.2371   -0.7485 C   0  0  2  0  0  0  0  0  0  0  0  0
   -1.3013   -0.5762   -2.1145 C   0  0  1  0  0  0  0  0  0  0  0  0
    2.4066    2.0706   -0.6313 C   0  0  1  0  0  0  0  0  0  0  0  0
    1.6216    3.2349    0.0100 C   0  0  1  0  0  0  0  0  0  0  0  0
   -3.0642   -1.7748   -0.6673 C   0  0  0  0  0  0  0  0  0  0  0  0
    3.5266    1.5182    0.2490 C   0  0  0  0  0  0  0  0  0  0  0  0
   -1.4645    1.8661    1.5393 C   0  0  2  0  0  0  0  0  0  0  0  0
    0.2036   -0.3856   -2.3530 C   0  0  0  0  0  0  0  0  0  0  0  0
    4.2355    0.3479   -0.4270 C   0  0  0  0  0  0  0  0  0  0  0  0
   -2.0410    0.8363    0.5823 C   0  0  0  0  0  0  0  0  0  0  0  0
   -2.4644    2.9430    1.9319 C   0  0  0  0  0  0  0  0  0  0  0  0
    5.3771   -0.1820    0.4438 C   0  0  0  0  0  0  0  0  0  0  0  0
    0.7536    2.7652    1.1670 C   0  0  0  0  0  0  0  0  0  0  0  0
    0.7211    0.9978   -2.0196 C   0  0  0  0  0  0  0  0  0  0  0  0
   -3.2967   -2.5120    0.6182 C   0  0  0  0  0  0  0  0  0  0  0  0
   -0.2193   -0.8112    1.2504 C   0  0  0  0  0  0  0  0  0  0  0  0
    2.5078    4.3964    0.4559 C   0  0  0  0  0  0  0  0  0  0  0  0
    6.0652   -1.3800   -0.2145 C   0  0  0  0  0  0  0  0  0  0  0  0
   -1.7412    4.1928    2.4301 C   0  0  0  0  0  0  0  0  0  0  0  0
   -3.4272    2.4209    2.9965 C   0  0  0  0  0  0  0  0  0  0  0  0
    7.1710   -1.9964    0.6471 C   0  0  0  0  0  0  0  0  0  0  0  0
   -2.0224   -0.6628   -4.3660 C   0  0  0  0  0  0  0  0  0  0  0  0
   -3.0491   -3.8829    0.6908 C   0  0  0  0  0  0  0  0  0  0  0  0
   -3.7602   -1.8267    1.7415 C   0  0  0  0  0  0  0  0  0  0  0  0
    7.8085   -3.2378    0.0216 C   0  0  0  0  0  0  0  0  0  0  0  0
   -3.2651   -4.5685    1.8862 C   0  0  0  0  0  0  0  0  0  0  0  0
   -3.9760   -2.5125    2.9369 C   0  0  0  0  0  0  0  0  0  0  0  0
    8.9071   -3.8036    0.9087 C   0  0  0  0  0  0  0  0  0  0  0  0
   -3.7284   -3.8833    3.0092 C   0  0  0  0  0  0  0  0  0  0  0  0
   -4.3271   -0.1358   -4.2962 C   0  0  0  0  0  0  0  0  0  0  0  0
   -0.9761   -2.1191   -0.6644 H   0  0  0  0  0  0  0  0  0  0  0  0
   -1.8058    0.3961   -2.1503 H   0  0  0  0  0  0  0  0  0  0  0  0
    2.8554    2.4271   -1.5686 H   0  0  0  0  0  0  0  0  0  0  0  0
    0.9395    3.6475   -0.7454 H   0  0  0  0  0  0  0  0  0  0  0  0
   -3.8179   -0.9907   -0.7913 H   0  0  0  0  0  0  0  0  0  0  0  0
   -3.2534   -2.4699   -1.4959 H   0  0  0  0  0  0  0  0  0  0  0  0
    4.2591    2.3008    0.4734 H   0  0  0  0  0  0  0  0  0  0  0  0
    3.1153    1.1653    1.2024 H   0  0  0  0  0  0  0  0  0  0  0  0
   -1.0288    1.4168    2.4329 H   0  0  0  0  0  0  0  0  0  0  0  0
    0.5005   -0.5769   -3.3903 H   0  0  0  0  0  0  0  0  0  0  0  0
    0.7755   -1.1295   -1.7841 H   0  0  0  0  0  0  0  0  0  0  0  0
    3.5315   -0.4708   -0.6171 H   0  0  0  0  0  0  0  0  0  0  0  0
    4.6336    0.6657   -1.3983 H   0  0  0  0  0  0  0  0  0  0  0  0
   -3.0549    3.2585    1.0623 H   0  0  0  0  0  0  0  0  0  0  0  0
    4.9834   -0.4809    1.4229 H   0  0  0  0  0  0  0  0  0  0  0  0
    6.1124    0.6124    0.6188 H   0  0  0  0  0  0  0  0  0  0  0  0
   -0.5607   -1.7083    1.7750 H   0  0  0  0  0  0  0  0  0  0  0  0
    0.1044   -0.0856    1.9911 H   0  0  0  0  0  0  0  0  0  0  0  0
    0.6463   -1.0710    0.6353 H   0  0  0  0  0  0  0  0  0  0  0  0
    3.1442    4.7401   -0.3658 H   0  0  0  0  0  0  0  0  0  0  0  0
    1.8911    5.2418    0.7815 H   0  0  0  0  0  0  0  0  0  0  0  0
    3.1483    4.1274    1.3020 H   0  0  0  0  0  0  0  0  0  0  0  0
    6.4889   -1.0720   -1.1783 H   0  0  0  0  0  0  0  0  0  0  0  0
    5.3149   -2.1511   -0.4308 H   0  0  0  0  0  0  0  0  0  0  0  0
   -2.4663    4.9341    2.7856 H   0  0  0  0  0  0  0  0  0  0  0  0
   -1.1651    4.6792    1.6369 H   0  0  0  0  0  0  0  0  0  0  0  0
   -1.0729    3.9657    3.2671 H   0  0  0  0  0  0  0  0  0  0  0  0
   -4.1536    3.1924    3.2739 H   0  0  0  0  0  0  0  0  0  0  0  0
   -3.9895    1.5556    2.6330 H   0  0  0  0  0  0  0  0  0  0  0  0
   -2.8931    2.1215    3.9049 H   0  0  0  0  0  0  0  0  0  0  0  0
    7.9453   -1.2404    0.8276 H   0  0  0  0  0  0  0  0  0  0  0  0
    6.7549   -2.2625    1.6269 H   0  0  0  0  0  0  0  0  0  0  0  0
   -1.0954   -0.1954   -4.7103 H   0  0  0  0  0  0  0  0  0  0  0  0
   -2.3197   -1.3674   -5.1514 H   0  0  0  0  0  0  0  0  0  0  0  0
   -2.6854   -4.4281   -0.1761 H   0  0  0  0  0  0  0  0  0  0  0  0
   -3.9853   -0.7666    1.7017 H   0  0  0  0  0  0  0  0  0  0  0  0
    8.2295   -2.9844   -0.9582 H   0  0  0  0  0  0  0  0  0  0  0  0
    7.0436   -4.0056   -0.1418 H   0  0  0  0  0  0  0  0  0  0  0  0
   -3.0719   -5.6358    1.9427 H   0  0  0  0  0  0  0  0  0  0  0  0
   -4.3423   -1.9800    3.8097 H   0  0  0  0  0  0  0  0  0  0  0  0
    9.7030   -3.0684    1.0648 H   0  0  0  0  0  0  0  0  0  0  0  0
    9.3499   -4.6902    0.4441 H   0  0  0  0  0  0  0  0  0  0  0  0
    8.5107   -4.0947    1.8867 H   0  0  0  0  0  0  0  0  0  0  0  0
   -3.8976   -4.4173    3.9397 H   0  0  0  0  0  0  0  0  0  0  0  0
   -4.5222   -0.5924   -5.2712 H   0  0  0  0  0  0  0  0  0  0  0  0
   -4.4947   -0.8647   -3.4977 H   0  0  0  0  0  0  0  0  0  0  0  0
   -5.0192    0.6991   -4.1578 H   0  0  0  0  0  0  0  0  0  0  0  0
  1 11  1  0  0  0  0
  1 22  1  0  0  0  0
  2 15  1  0  0  0  0
  2 21  1  0  0  0  0
  3 10  1  0  0  0  0
  3 30  1  0  0  0  0
  4 18  2  0  0  0  0
  5 21  2  0  0  0  0
  6 22  2  0  0  0  0
  7 30  1  0  0  0  0
  7 38  1  0  0  0  0
  8  9  1  0  0  0  0
  8 18  1  0  0  0  0
  8 24  1  0  0  0  0
  9 10  1  0  0  0  0
  9 13  1  0  0  0  0
  9 39  1  0  0  0  0
 10 16  1  0  0  0  0
 10 40  1  0  0  0  0
 11 12  1  0  0  0  0
 11 14  1  0  0  0  0
 11 41  1  0  0  0  0
 12 21  1  0  0  0  0
 12 25  1  0  0  0  0
 12 42  1  0  0  0  0
 13 23  1  0  0  0  0
 13 43  1  0  0  0  0
 13 44  1  0  0  0  0
 14 17  1  0  0  0  0
 14 45  1  0  0  0  0
 14 46  1  0  0  0  0
 15 18  1  0  0  0  0
 15 19  1  0  0  0  0
 15 47  1  0  0  0  0
 16 22  1  0  0  0  0
 16 48  1  0  0  0  0
 16 49  1  0  0  0  0
 17 20  1  0  0  0  0
 17 50  1  0  0  0  0
 17 51  1  0  0  0  0
 19 27  1  0  0  0  0
 19 28  1  0  0  0  0
 19 52  1  0  0  0  0
 20 26  1  0  0  0  0
 20 53  1  0  0  0  0
 20 54  1  0  0  0  0
 23 31  2  0  0  0  0
 23 32  1  0  0  0  0
 24 55  1  0  0  0  0
 24 56  1  0  0  0  0
 24 57  1  0  0  0  0
 25 58  1  0  0  0  0
 25 59  1  0  0  0  0
 25 60  1  0  0  0  0
 26 29  1  0  0  0  0
 26 61  1  0  0  0  0
 26 62  1  0  0  0  0
 27 63  1  0  0  0  0
 27 64  1  0  0  0  0
 27 65  1  0  0  0  0
 28 66  1  0  0  0  0
 28 67  1  0  0  0  0
 28 68  1  0  0  0  0
 29 33  1  0  0  0  0
 29 69  1  0  0  0  0
 29 70  1  0  0  0  0
 30 71  1  0  0  0  0
 30 72  1  0  0  0  0
 31 34  1  0  0  0  0
 31 73  1  0  0  0  0
 32 35  2  0  0  0  0
 32 74  1  0  0  0  0
 33 36  1  0  0  0  0
 33 75  1  0  0  0  0
 33 76  1  0  0  0  0
 34 37  2  0  0  0  0
 34 77  1  0  0  0  0
 35 37  1  0  0  0  0
 35 78  1  0  0  0  0
 36 79  1  0  0  0  0
 36 80  1  0  0  0  0
 36 81  1  0  0  0  0
 37 82  1  0  0  0  0
 38 83  1  0  0  0  0
 38 84  1  0  0  0  0
 38 85  1  0  0  0  0
M  END
> <PUBCHEM_COMPOUND_CID>
11813472

> <PUBCHEM_CONFORMER_RMSD>
1.2

> <PUBCHEM_CONFORMER_DIVERSEORDER>
1
4
21
17
3
6
20
25
24
19
9
11
12
7
15
18
5
13
23
14
22
8
2
16
10

> <PUBCHEM_MMFF94_PARTIAL_CHARGES>
32
1 -0.43
10 0.28
11 0.28
12 0.06
13 0.14
15 0.34
16 0.06
18 0.57
2 -0.43
21 0.66
22 0.66
23 -0.14
24 0.3
3 -0.56
30 0.56
31 -0.15
32 -0.15
34 -0.15
35 -0.15
37 -0.15
38 0.28
4 -0.57
5 -0.57
6 -0.57
7 -0.56
73 0.15
74 0.15
77 0.15
78 0.15
8 -0.66
82 0.15
9 0.3

> <PUBCHEM_EFFECTIVE_ROTOR_COUNT>
13.8

> <PUBCHEM_PHARMACOPHORE_FEATURES>
10
1 3 acceptor
1 36 hydrophobe
1 4 acceptor
1 5 acceptor
1 6 acceptor
1 7 acceptor
3 14 17 20 hydrophobe
3 19 27 28 hydrophobe
3 26 29 33 hydrophobe
6 23 31 32 34 35 37 rings

> <PUBCHEM_HEAVY_ATOM_COUNT>
38

> <PUBCHEM_ATOM_DEF_STEREO_COUNT>
5

> <PUBCHEM_ATOM_UDEF_STEREO_COUNT>
0

> <PUBCHEM_BOND_DEF_STEREO_COUNT>
0

> <PUBCHEM_BOND_UDEF_STEREO_COUNT>
0

> <PUBCHEM_ISOTOPIC_ATOM_COUNT>
0

> <PUBCHEM_COMPONENT_COUNT>
1

> <PUBCHEM_CACTVS_TAUTO_COUNT>
1

> <PUBCHEM_CONFORMER_ID>
00B4426000000001

> <PUBCHEM_MMFF94_ENERGY>
87.365

> <PUBCHEM_FEATURE_SELFOVERLAP>
50.794

> <PUBCHEM_SHAPE_FINGERPRINT>
10305334 12 18195539090356950698
11387372 6 18123198909584292954
11607047 191 17554055333822292984
12422481 6 17201390509396065771
12633046 712 18333731360029120324
12633257 1 15984548922458027576
13383668 90 16660938655823542577
14068700 675 17416094322769323748
14844126 61 17703501100039427264
15324884 4 16984942711778473677
19319366 153 17403750329073780436
20580484 66 18120933899153579354
484985 159 17968936371381134222
59444896 2 17623542286980579509
6700243 42 16952524947252859363
9981440 41 17130153000740336153

> <PUBCHEM_SHAPE_MULTIPOLES>
735.96
13.51
6.21
4.35
42.18
0.86
5.36
20.54
-4.51
0.13
-6.14
-8.32
0.05
0.2

> <PUBCHEM_SHAPE_SELFOVERLAP>
1478.892

> <PUBCHEM_SHAPE_VOLUME>
428.9

> <PUBCHEM_COORDINATE_TYPE>
2
5
10

$$$$