105
 OpenBabel03292021563D

101103  0  0  1  0  0  0  0  0999 V2000
    3.5940   -1.8719    3.0223 C   0  0  0  0  0  0  0  0  0  0  0  0
    2.7441   -0.7832    2.3616 C   0  0  0  0  0  0  0  0  0  0  0  0
    2.4470   -1.1013    0.8918 C   0  0  0  0  0  0  0  0  0  0  0  0
    1.4111   -0.6715    3.1183 C   0  0  0  0  0  0  0  0  0  0  0  0
    3.3571    0.5222    2.5026 O   0  0  0  0  0  0  0  0  0  0  0  0
    4.5660    0.7971    1.9407 C   0  0  0  0  0  0  0  0  0  0  0  0
    5.2672    0.0129    1.3137 O   0  0  0  0  0  0  0  0  0  0  0  0
    4.9291    2.2689    2.1672 C   0  0  2  0  0  0  0  0  0  0  0  0
    4.3688    3.1716    1.0568 C   0  0  0  0  0  0  0  0  0  0  0  0
    2.8386    3.1349    0.9761 C   0  0  0  0  0  0  0  0  0  0  0  0
    2.2739    4.0713   -0.0945 C   0  0  0  0  0  0  0  0  0  0  0  0
    0.7451    3.9668   -0.1418 C   0  0  0  0  0  0  0  0  0  0  0  0
    0.1652    4.7930   -1.1754 N   0  0  0  0  0  0  0  0  0  0  0  0
    0.0903    4.3991   -2.4765 C   0  0  0  0  0  0  0  0  0  0  0  0
    0.4328    3.2986   -2.8938 O   0  0  0  0  0  0  0  0  0  0  0  0
   -0.3544    5.4260   -3.2363 O   0  0  0  0  0  0  0  0  0  0  0  0
   -0.1770    5.2671   -4.6503 C   0  0  0  0  0  0  0  0  0  0  0  0
   -1.4941    5.0983   -5.3637 C   0  0  0  0  0  0  0  0  0  0  0  0
   -2.2043    6.2137   -5.8304 C   0  0  0  0  0  0  0  0  0  0  0  0
   -3.4180    6.0518   -6.5023 C   0  0  0  0  0  0  0  0  0  0  0  0
   -3.9350    4.7748   -6.7126 C   0  0  0  0  0  0  0  0  0  0  0  0
   -3.2358    3.6583   -6.2572 C   0  0  0  0  0  0  0  0  0  0  0  0
   -2.0233    3.8184   -5.5826 C   0  0  0  0  0  0  0  0  0  0  0  0
    6.3890    2.3393    2.2067 N   0  0  0  0  0  0  0  0  0  0  0  0
    7.0498    3.2222    3.0278 C   0  0  0  0  0  0  0  0  0  0  0  0
    6.4814    4.1659    3.5743 O   0  0  0  0  0  0  0  0  0  0  0  0
    8.5753    3.0436    3.0874 C   0  0  2  0  0  0  0  0  0  0  0  0
    9.2044    3.3935    1.7328 C   0  0  0  0  0  0  0  0  0  0  0  0
   10.5809    2.7304    1.7868 C   0  0  1  0  0  0  0  0  0  0  0  0
   11.5049    3.6864    2.3121 O   0  0  0  0  0  0  0  0  0  0  0  0
   12.8586    3.2374    2.2445 C   0  0  0  0  0  0  0  0  0  0  0  0
   13.8029    4.3141    2.8032 C   0  0  0  0  0  0  0  0  0  0  0  0
   13.4008    4.7820    4.2118 C   0  0  0  0  0  0  0  0  0  0  0  0
   13.6163    3.7002    5.2672 C   0  0  0  0  0  0  0  0  0  0  0  0
   15.0529    3.1839    5.2550 C   0  0  0  0  0  0  0  0  0  0  0  0
   15.4991    2.7317    3.8666 C   0  0  0  0  0  0  0  0  0  0  0  0
   15.2552    3.8105    2.8092 C   0  0  0  0  0  0  0  0  0  0  0  0
   10.3740    1.5168    2.7110 C   0  0  0  0  0  0  0  0  0  0  0  0
    9.0486    1.6756    3.2821 N   0  0  0  0  0  0  0  0  0  0  0  0
    8.5620    0.8635    4.2819 C   0  0  0  0  0  0  0  0  0  0  0  0
    7.5506    1.1119    4.9179 O   0  0  0  0  0  0  0  0  0  0  0  0
    9.3069   -0.2670    4.4195 O   0  0  0  0  0  0  0  0  0  0  0  0
    8.8937   -1.3280    5.3223 C   0  0  0  0  0  0  0  0  0  0  0  0
    7.6048   -1.9951    4.8280 C   0  0  0  0  0  0  0  0  0  0  0  0
   10.0309   -2.3618    5.2721 C   0  0  0  0  0  0  0  0  0  0  0  0
    8.7576   -0.8383    6.7690 C   0  0  0  0  0  0  0  0  0  0  0  0
    3.0768   -2.8371    3.0148 H   0  0  0  0  0  0  0  0  0  0  0  0
    3.8238   -1.6081    4.0606 H   0  0  0  0  0  0  0  0  0  0  0  0
    4.5527   -2.0083    2.5146 H   0  0  0  0  0  0  0  0  0  0  0  0
    1.8870   -2.0372    0.7930 H   0  0  0  0  0  0  0  0  0  0  0  0
    3.3620   -1.2007    0.3010 H   0  0  0  0  0  0  0  0  0  0  0  0
    1.8620   -0.2981    0.4288 H   0  0  0  0  0  0  0  0  0  0  0  0
    0.8418   -1.6061    3.0807 H   0  0  0  0  0  0  0  0  0  0  0  0
    0.7899    0.1298    2.7001 H   0  0  0  0  0  0  0  0  0  0  0  0
    1.5812   -0.4114    4.1698 H   0  0  0  0  0  0  0  0  0  0  0  0
    4.5495    2.5768    3.1491 H   0  0  0  0  0  0  0  0  0  0  0  0
    4.6956    4.2043    1.2350 H   0  0  0  0  0  0  0  0  0  0  0  0
    4.7915    2.8747    0.0885 H   0  0  0  0  0  0  0  0  0  0  0  0
    2.4147    3.3945    1.9533 H   0  0  0  0  0  0  0  0  0  0  0  0
    2.5097    2.1186    0.7368 H   0  0  0  0  0  0  0  0  0  0  0  0
    2.6977    3.8104   -1.0723 H   0  0  0  0  0  0  0  0  0  0  0  0
    2.5710    5.1061    0.1136 H   0  0  0  0  0  0  0  0  0  0  0  0
    0.3134    4.2858    0.8126 H   0  0  0  0  0  0  0  0  0  0  0  0
    0.4466    2.9265   -0.3188 H   0  0  0  0  0  0  0  0  0  0  0  0
   -0.0758    5.7570   -0.9888 H   0  0  0  0  0  0  0  0  0  0  0  0
    0.5079    4.4504   -4.9086 H   0  0  0  0  0  0  0  0  0  0  0  0
    0.3130    6.1807   -5.0063 H   0  0  0  0  0  0  0  0  0  0  0  0
   -1.8124    7.2165   -5.6795 H   0  0  0  0  0  0  0  0  0  0  0  0
   -3.9607    6.9222   -6.8619 H   0  0  0  0  0  0  0  0  0  0  0  0
   -4.8831    4.6496   -7.2296 H   0  0  0  0  0  0  0  0  0  0  0  0
   -3.6351    2.6617   -6.4264 H   0  0  0  0  0  0  0  0  0  0  0  0
   -1.4874    2.9375   -5.2329 H   0  0  0  0  0  0  0  0  0  0  0  0
    6.9051    1.5602    1.8085 H   0  0  0  0  0  0  0  0  0  0  0  0
    8.9813    3.6629    3.8970 H   0  0  0  0  0  0  0  0  0  0  0  0
    9.2387    4.4736    1.5634 H   0  0  0  0  0  0  0  0  0  0  0  0
    8.6314    2.9408    0.9126 H   0  0  0  0  0  0  0  0  0  0  0  0
   10.9075    2.4297    0.7846 H   0  0  0  0  0  0  0  0  0  0  0  0
   13.1210    3.0251    1.2011 H   0  0  0  0  0  0  0  0  0  0  0  0
   12.9569    2.3080    2.8096 H   0  0  0  0  0  0  0  0  0  0  0  0
   13.7358    5.1868    2.1398 H   0  0  0  0  0  0  0  0  0  0  0  0
   12.3561    5.1130    4.2291 H   0  0  0  0  0  0  0  0  0  0  0  0
   14.0036    5.6603    4.4777 H   0  0  0  0  0  0  0  0  0  0  0  0
   12.9224    2.8686    5.0975 H   0  0  0  0  0  0  0  0  0  0  0  0
   13.3815    4.1051    6.2581 H   0  0  0  0  0  0  0  0  0  0  0  0
   15.1497    2.3520    5.9618 H   0  0  0  0  0  0  0  0  0  0  0  0
   15.7230    3.9785    5.6051 H   0  0  0  0  0  0  0  0  0  0  0  0
   14.9693    1.8115    3.5941 H   0  0  0  0  0  0  0  0  0  0  0  0
   16.5645    2.4761    3.8896 H   0  0  0  0  0  0  0  0  0  0  0  0
   15.5276    3.4237    1.8200 H   0  0  0  0  0  0  0  0  0  0  0  0
   15.9247    4.6567    3.0090 H   0  0  0  0  0  0  0  0  0  0  0  0
   11.0974    1.4827    3.5334 H   0  0  0  0  0  0  0  0  0  0  0  0
   10.4072    0.5710    2.1633 H   0  0  0  0  0  0  0  0  0  0  0  0
    7.7112   -2.3311    3.7893 H   0  0  0  0  0  0  0  0  0  0  0  0
    6.7558   -1.3049    4.8475 H   0  0  0  0  0  0  0  0  0  0  0  0
    7.3442   -2.8616    5.4458 H   0  0  0  0  0  0  0  0  0  0  0  0
   10.1840   -2.7301    4.2516 H   0  0  0  0  0  0  0  0  0  0  0  0
    9.8321   -3.2178    5.9238 H   0  0  0  0  0  0  0  0  0  0  0  0
   10.9803   -1.9062    5.5800 H   0  0  0  0  0  0  0  0  0  0  0  0
    7.9165   -0.1526    6.8958 H   0  0  0  0  0  0  0  0  0  0  0  0
    9.6571   -0.2976    7.0834 H   0  0  0  0  0  0  0  0  0  0  0  0
    8.5936   -1.6760    7.4554 H   0  0  0  0  0  0  0  0  0  0  0  0
  1  2  1  0  0  0  0
  1 47  1  0  0  0  0
  1 48  1  0  0  0  0
  1 49  1  0  0  0  0
  2  3  1  0  0  0  0
  2  4  1  0  0  0  0
  2  5  1  0  0  0  0
  3 50  1  0  0  0  0
  3 51  1  0  0  0  0
  3 52  1  0  0  0  0
  4 53  1  0  0  0  0
  4 54  1  0  0  0  0
  4 55  1  0  0  0  0
  5  6  1  0  0  0  0
  6  7  2  0  0  0  0
  8 24  1  0  0  0  0
  8  9  1  0  0  0  0
  8  6  1  0  0  0  0
  8 56  1  1  0  0  0
  9 10  1  0  0  0  0
  9 57  1  0  0  0  0
  9 58  1  0  0  0  0
 10 11  1  0  0  0  0
 10 59  1  0  0  0  0
 10 60  1  0  0  0  0
 11 12  1  0  0  0  0
 11 61  1  0  0  0  0
 11 62  1  0  0  0  0
 12 13  1  0  0  0  0
 12 63  1  0  0  0  0
 12 64  1  0  0  0  0
 13 14  1  0  0  0  0
 13 65  1  0  0  0  0
 14 15  2  0  0  0  0
 14 16  1  0  0  0  0
 16 17  1  0  0  0  0
 17 18  1  0  0  0  0
 17 66  1  0  0  0  0
 17 67  1  0  0  0  0
 18 19  1  0  0  0  0
 18 23  2  0  0  0  0
 19 20  2  0  0  0  0
 19 68  1  0  0  0  0
 20 21  1  0  0  0  0
 20 69  1  0  0  0  0
 21 22  2  0  0  0  0
 21 70  1  0  0  0  0
 22 23  1  0  0  0  0
 22 71  1  0  0  0  0
 23 72  1  0  0  0  0
 24 25  1  0  0  0  0
 24 73  1  0  0  0  0
 25 26  2  0  0  0  0
 25 27  1  0  0  0  0
 27 28  1  0  0  0  0
 27 39  1  0  0  0  0
 27 74  1  1  0  0  0
 28 29  1  0  0  0  0
 28 75  1  0  0  0  0
 28 76  1  0  0  0  0
 29 30  1  0  0  0  0
 29 38  1  0  0  0  0
 29 77  1  6  0  0  0
 30 31  1  0  0  0  0
 31 32  1  0  0  0  0
 31 78  1  0  0  0  0
 31 79  1  0  0  0  0
 32 33  1  0  0  0  0
 32 37  1  0  0  0  0
 32 80  1  0  0  0  0
 33 34  1  0  0  0  0
 33 81  1  0  0  0  0
 33 82  1  0  0  0  0
 34 35  1  0  0  0  0
 34 83  1  0  0  0  0
 34 84  1  0  0  0  0
 35 36  1  0  0  0  0
 35 85  1  0  0  0  0
 35 86  1  0  0  0  0
 36 37  1  0  0  0  0
 36 87  1  0  0  0  0
 36 88  1  0  0  0  0
 37 89  1  0  0  0  0
 37 90  1  0  0  0  0
 38 39  1  0  0  0  0
 38 91  1  0  0  0  0
 38 92  1  0  0  0  0
 39 40  1  0  0  0  0
 40 41  2  0  0  0  0
 40 42  1  0  0  0  0
 42 43  1  0  0  0  0
 43 44  1  0  0  0  0
 43 45  1  0  0  0  0
 43 46  1  0  0  0  0
 44 93  1  0  0  0  0
 44 94  1  0  0  0  0
 44 95  1  0  0  0  0
 45 96  1  0  0  0  0
 45 97  1  0  0  0  0
 45 98  1  0  0  0  0
 46 99  1  0  0  0  0
 46100  1  0  0  0  0
 46101  1  0  0  0  0
M  END
>  <Energy>
-15.4673

$$$$