44565437
  -OEChem-03242010103D

 65 68  0     1  0  0  0  0  0999 V2000
    9.7427   -2.0366   -0.7410 O   0  0  0  0  0  0  0  0  0  0  0  0
   10.6092    0.3569    0.3710 O   0  0  0  0  0  0  0  0  0  0  0  0
   -4.2589    0.5201    1.6779 O   0  0  0  0  0  0  0  0  0  0  0  0
   -8.6319    2.1343   -0.6243 O   0  5  0  0  0  0  0  0  0  0  0  0
   -7.8983    0.6728   -2.0891 O   0  0  0  0  0  0  0  0  0  0  0  0
    4.2219    0.5438   -0.1890 N   0  0  1  0  0  0  0  0  0  0  0  0
   -3.5980    0.0337   -0.5272 N   0  0  0  0  0  0  0  0  0  0  0  0
   -8.4887    0.9542   -1.0204 N   0  3  0  0  0  0  0  0  0  0  0  0
    4.5539    1.3348    1.0023 C   0  0  0  0  0  0  0  0  0  0  0  0
    5.0620   -0.6656   -0.2473 C   0  0  0  0  0  0  0  0  0  0  0  0
    5.9810    1.8793    0.8847 C   0  0  0  0  0  0  0  0  0  0  0  0
    6.5388   -0.3753   -0.1068 C   0  0  0  0  0  0  0  0  0  0  0  0
    6.9777    0.8256    0.4768 C   0  0  0  0  0  0  0  0  0  0  0  0
    2.8053    0.1802   -0.1928 C   0  0  0  0  0  0  0  0  0  0  0  0
    1.9341    1.3759   -0.5788 C   0  0  0  0  0  0  0  0  0  0  0  0
    7.4802   -1.3356   -0.5016 C   0  0  0  0  0  0  0  0  0  0  0  0
    8.3502    1.0644    0.6226 C   0  0  0  0  0  0  0  0  0  0  0  0
    8.8444   -1.0926   -0.3435 C   0  0  0  0  0  0  0  0  0  0  0  0
    9.2790    0.1070    0.2158 C   0  0  0  0  0  0  0  0  0  0  0  0
    0.4687    1.0204   -0.5651 C   0  0  0  0  0  0  0  0  0  0  0  0
   -0.1409    0.5307   -1.7202 C   0  0  0  0  0  0  0  0  0  0  0  0
   -0.2771    1.1812    0.6025 C   0  0  0  0  0  0  0  0  0  0  0  0
   -1.4964    0.2018   -1.7078 C   0  0  0  0  0  0  0  0  0  0  0  0
   -1.6326    0.8523    0.6151 C   0  0  0  0  0  0  0  0  0  0  0  0
   -2.2423    0.3627   -0.5399 C   0  0  0  0  0  0  0  0  0  0  0  0
    9.2154   -3.2365   -1.3037 C   0  0  0  0  0  0  0  0  0  0  0  0
   11.2057   -0.0502    1.6010 C   0  0  0  0  0  0  0  0  0  0  0  0
   -4.4995    0.1274    0.5423 C   0  0  0  0  0  0  0  0  0  0  0  0
   -5.8698   -0.3243    0.1502 C   0  0  0  0  0  0  0  0  0  0  0  0
   -6.8666   -0.3047    1.0475 C   0  0  0  0  0  0  0  0  0  0  0  0
   -8.2528   -0.7180    0.7664 C   0  0  0  0  0  0  0  0  0  0  0  0
   -9.0154   -0.1047   -0.2276 C   0  0  0  0  0  0  0  0  0  0  0  0
   -8.7989   -1.7530    1.5254 C   0  0  0  0  0  0  0  0  0  0  0  0
  -10.3240   -0.5263   -0.4625 C   0  0  0  0  0  0  0  0  0  0  0  0
  -10.1077   -2.1746    1.2906 C   0  0  0  0  0  0  0  0  0  0  0  0
  -10.8703   -1.5614    0.2966 C   0  0  0  0  0  0  0  0  0  0  0  0
    3.8920    2.1969    1.1288 H   0  0  0  0  0  0  0  0  0  0  0  0
    4.4590    0.7245    1.9112 H   0  0  0  0  0  0  0  0  0  0  0  0
    4.7801   -1.3729    0.5443 H   0  0  0  0  0  0  0  0  0  0  0  0
    4.8979   -1.1554   -1.2155 H   0  0  0  0  0  0  0  0  0  0  0  0
    6.2738    2.3131    1.8483 H   0  0  0  0  0  0  0  0  0  0  0  0
    6.0063    2.6805    0.1349 H   0  0  0  0  0  0  0  0  0  0  0  0
    2.4986   -0.2370    0.7760 H   0  0  0  0  0  0  0  0  0  0  0  0
    2.6296   -0.6100   -0.9358 H   0  0  0  0  0  0  0  0  0  0  0  0
    2.2115    1.7377   -1.5780 H   0  0  0  0  0  0  0  0  0  0  0  0
    2.0797    2.2290    0.0928 H   0  0  0  0  0  0  0  0  0  0  0  0
    7.0827   -2.2526   -0.9244 H   0  0  0  0  0  0  0  0  0  0  0  0
    8.6949    2.0013    1.0542 H   0  0  0  0  0  0  0  0  0  0  0  0
    0.4302    0.3993   -2.6355 H   0  0  0  0  0  0  0  0  0  0  0  0
    0.1884    1.5599    1.5088 H   0  0  0  0  0  0  0  0  0  0  0  0
   -1.9582   -0.1792   -2.6151 H   0  0  0  0  0  0  0  0  0  0  0  0
   -2.1416    1.0040    1.5565 H   0  0  0  0  0  0  0  0  0  0  0  0
    8.6156   -3.7940   -0.5762 H   0  0  0  0  0  0  0  0  0  0  0  0
   10.0685   -3.8717   -1.5639 H   0  0  0  0  0  0  0  0  0  0  0  0
    8.6703   -3.0413   -2.2335 H   0  0  0  0  0  0  0  0  0  0  0  0
   10.7421    0.4730    2.4434 H   0  0  0  0  0  0  0  0  0  0  0  0
   11.1140   -1.1328    1.7344 H   0  0  0  0  0  0  0  0  0  0  0  0
   12.2673    0.2096    1.5695 H   0  0  0  0  0  0  0  0  0  0  0  0
   -3.9601   -0.3153   -1.4123 H   0  0  0  0  0  0  0  0  0  0  0  0
   -6.0196   -0.6849   -0.8614 H   0  0  0  0  0  0  0  0  0  0  0  0
   -6.6933    0.0215    2.0701 H   0  0  0  0  0  0  0  0  0  0  0  0
   -8.2186   -2.2427    2.3038 H   0  0  0  0  0  0  0  0  0  0  0  0
  -10.9312   -0.0583   -1.2337 H   0  0  0  0  0  0  0  0  0  0  0  0
  -10.5331   -2.9806    1.8815 H   0  0  0  0  0  0  0  0  0  0  0  0
  -11.8893   -1.8898    0.1138 H   0  0  0  0  0  0  0  0  0  0  0  0
  1 18  1  0  0  0  0
  1 26  1  0  0  0  0
  2 19  1  0  0  0  0
  2 27  1  0  0  0  0
  3 28  2  0  0  0  0
  4  8  1  0  0  0  0
  5  8  2  0  0  0  0
  6  9  1  0  0  0  0
  6 10  1  0  0  0  0
  6 14  1  0  0  0  0
  7 25  1  0  0  0  0
  7 28  1  0  0  0  0
  7 59  1  0  0  0  0
  8 32  1  0  0  0  0
  9 11  1  0  0  0  0
  9 37  1  0  0  0  0
  9 38  1  0  0  0  0
 10 12  1  0  0  0  0
 10 39  1  0  0  0  0
 10 40  1  0  0  0  0
 11 13  1  0  0  0  0
 11 41  1  0  0  0  0
 11 42  1  0  0  0  0
 12 13  1  0  0  0  0
 12 16  2  0  0  0  0
 13 17  2  0  0  0  0
 14 15  1  0  0  0  0
 14 43  1  0  0  0  0
 14 44  1  0  0  0  0
 15 20  1  0  0  0  0
 15 45  1  0  0  0  0
 15 46  1  0  0  0  0
 16 18  1  0  0  0  0
 16 47  1  0  0  0  0
 17 19  1  0  0  0  0
 17 48  1  0  0  0  0
 18 19  2  0  0  0  0
 20 21  2  0  0  0  0
 20 22  1  0  0  0  0
 21 23  1  0  0  0  0
 21 49  1  0  0  0  0
 22 24  2  0  0  0  0
 22 50  1  0  0  0  0
 23 25  2  0  0  0  0
 23 51  1  0  0  0  0
 24 25  1  0  0  0  0
 24 52  1  0  0  0  0
 26 53  1  0  0  0  0
 26 54  1  0  0  0  0
 26 55  1  0  0  0  0
 27 56  1  0  0  0  0
 27 57  1  0  0  0  0
 27 58  1  0  0  0  0
 28 29  1  0  0  0  0
 29 30  2  0  0  0  0
 29 60  1  0  0  0  0
 30 31  1  0  0  0  0
 30 61  1  0  0  0  0
 31 32  1  0  0  0  0
 31 33  2  0  0  0  0
 32 34  2  0  0  0  0
 33 35  1  0  0  0  0
 33 62  1  0  0  0  0
 34 36  1  0  0  0  0
 34 63  1  0  0  0  0
 35 36  2  0  0  0  0
 35 64  1  0  0  0  0
 36 65  1  0  0  0  0
M  CHG  2   4  -1   8   1
M  END
> <PUBCHEM_COMPOUND_CID>
44565437

> <PUBCHEM_CONFORMER_RMSD>
1.2

> <PUBCHEM_CONFORMER_DIVERSEORDER>
9
33
59
36
62
27
1
44
42
53
49
83
2
65
48
56
67
77
52
47
54
74
29
3
81
66
26
8
39
51
35
69
55
31
82
61
5
63
32
12
64
58
13
57
84
23
15
11
60
22
71
20
76
79
4
28
24
45
78
14
46
38
10
68
25
41
37
21
16
72
75
80
7
34
70
30
19
6
40
43
50
18
17
73

> <PUBCHEM_MMFF94_PARTIAL_CHARGES>
49
1 -0.36
10 0.41
11 0.14
12 -0.14
13 -0.14
14 0.27
15 0.14
16 -0.15
17 -0.15
18 0.08
19 0.08
2 -0.36
20 -0.14
21 -0.15
22 -0.15
23 -0.15
24 -0.15
25 0.12
26 0.28
27 0.28
28 0.62
29 -0.14
3 -0.57
30 -0.18
31 0.03
32 0.13
33 -0.15
34 -0.15
35 -0.15
36 -0.15
4 -0.52
47 0.15
48 0.15
49 0.15
5 -0.52
50 0.15
51 0.15
52 0.15
59 0.37
6 -0.81
60 0.15
61 0.15
62 0.15
63 0.15
64 0.15
65 0.15
7 -0.55
8 0.91
9 0.27

> <PUBCHEM_EFFECTIVE_ROTOR_COUNT>
10.8

> <PUBCHEM_PHARMACOPHORE_FEATURES>
12
1 1 acceptor
1 2 acceptor
1 3 acceptor
1 4 acceptor
1 4 anion
1 5 acceptor
1 6 cation
1 7 donor
6 12 13 16 17 18 19 rings
6 20 21 22 23 24 25 rings
6 31 32 33 34 35 36 rings
6 6 9 10 11 12 13 rings

> <PUBCHEM_HEAVY_ATOM_COUNT>
36

> <PUBCHEM_ATOM_DEF_STEREO_COUNT>
0

> <PUBCHEM_ATOM_UDEF_STEREO_COUNT>
0

> <PUBCHEM_BOND_DEF_STEREO_COUNT>
1

> <PUBCHEM_BOND_UDEF_STEREO_COUNT>
0

> <PUBCHEM_ISOTOPIC_ATOM_COUNT>
0

> <PUBCHEM_COMPONENT_COUNT>
1

> <PUBCHEM_CACTVS_TAUTO_COUNT>
2

> <PUBCHEM_CONFORMER_ID>
02A803BD00000009

> <PUBCHEM_MMFF94_ENERGY>
129.4527

> <PUBCHEM_FEATURE_SELFOVERLAP>
61.005

> <PUBCHEM_SHAPE_FINGERPRINT>
10076449 9 15140674792048966413
10168742 298 18040446464743320350
106641 1 17275389811040927393
10674148 151 17168142360146361961
11408170 108 18272375239212412278
11638347 137 18343868822318098994
12013929 2 18411981343636162433
12089408 11 16128654162930897460
12144603 126 13840264779821592264
12498461 61 18337952398486226595
12522641 33 14056997221917787880
12539745 222 18410295775094522057
12664476 115 14476961190120905410
14040221 8 14779544578155773127
14117953 113 17095529504320383322
14202775 3 18409173233704490059
14251764 46 18186800287934872496
14344974 52 8718820977644107961
14359421 15 16987458417635325638
15065858 18 18409727352655764308
15219723 13 15913337854470214702
15247644 1 18186240636754550106
15510794 2 18333450949644875874
155225 1 11959735966481364339
15706992 2 12463576192426929643
15890870 6 14201398296033590744
16728433 110 17989202668583943568
19841028 212 17895469220295014266
20105231 36 18186519883075158898
20156587 128 13190606227337931152
21102433 48 17775564261183776751
212700 22 18335703862003654755
21362267 313 13182476425682819870
21792961 116 18412826890264765857
232437 2 17603301565970518633
24771293 8 14979964662143315761
24893992 56 15410608220709150623
335352 9 15213018271921359209
4017518 198 17676209087594325019
4353968 344 17530960312125989967
4625314 4 18040719207618306068
5028188 123 11530484454962591097
6081469 158 18411700985034612992
6201320 215 17560528283946396609
6691757 9 15626225758383799375
9663363 56 17458341958035308676
9937071 3 18413108355960705210

> <PUBCHEM_SHAPE_MULTIPOLES>
696.57
50.48
1.94
1.42
11.21
1.13
-0.15
22.86
8.24
-2.1
-0.18
1.24
0.06
4.56

> <PUBCHEM_SHAPE_SELFOVERLAP>
1496.264

> <PUBCHEM_SHAPE_VOLUME>
383.3

> <PUBCHEM_COORDINATE_TYPE>
2
5
10

$$$$