106
 OpenBabel03292021563D

202202  0  0  1  0  0  0  0  0999 V2000
    6.2294   -0.7899    0.0965 C   0  0  0  0  0  0  0  0  0  0  0  0
    7.6407   -0.9085   -0.3941 C   0  0  0  0  0  0  0  0  0  0  0  0
    8.1165   -0.7216   -1.6427 C   0  0  0  0  0  0  0  0  0  0  0  0
    9.6035   -0.6701   -2.0201 C   0  0  0  0  0  0  0  0  0  0  0  0
   10.1460   -1.1936   -3.4209 C   0  0  1  0  0  0  0  0  0  0  0  0
    9.1996   -0.6885   -4.5287 C   0  0  0  0  0  0  0  0  0  0  0  0
   11.7632   -0.8530   -3.8421 C   0  0  1  0  0  0  0  0  0  0  0  0
   12.0735    0.4080   -3.2474 O   0  0  0  0  0  0  0  0  0  0  0  0
   13.0257   -1.9627   -3.5352 C   0  0  1  0  0  0  0  0  0  0  0  0
   14.8095   -1.7035   -3.8641 C   0  0  0  0  0  0  0  0  0  0  0  0
   15.2640   -0.5796   -3.5974 O   0  0  0  0  0  0  0  0  0  0  0  0
   15.7859   -2.6933   -4.3031 N   0  0  0  0  0  0  0  0  0  0  0  0
   17.4919   -2.6509   -4.1948 C   0  0  1  0  0  0  0  0  0  0  0  0
   18.3687   -1.7654   -5.2103 C   0  0  0  0  0  0  0  0  0  0  0  0
   19.9381   -1.9897   -5.1797 C   0  0  0  0  0  0  0  0  0  0  0  0
   20.9256   -0.8263   -5.1675 C   0  0  0  0  0  0  0  0  0  0  0  0
   18.3679   -3.9130   -3.5451 C   0  0  0  0  0  0  0  0  0  0  0  0
   18.2145   -4.1065   -2.3407 O   0  0  0  0  0  0  0  0  0  0  0  0
   19.3540   -4.7139   -4.1493 N   0  0  0  0  0  0  0  0  0  0  0  0
   19.4178   -4.9455   -5.5846 C   0  0  0  0  0  0  0  0  0  0  0  0
   20.0063   -5.8226   -3.3431 C   0  0  0  0  0  0  0  0  0  0  0  0
   20.8288   -5.8833   -1.9766 C   0  0  0  0  0  0  0  0  0  0  0  0
   20.4106   -6.6555   -1.0985 O   0  0  0  0  0  0  0  0  0  0  0  0
   22.0896   -5.2980   -1.8107 N   0  0  0  0  0  0  0  0  0  0  0  0
   22.6521   -4.3988   -2.8013 C   0  0  0  0  0  0  0  0  0  0  0  0
   22.8110   -5.4512   -0.4767 C   0  0  2  0  0  0  0  0  0  0  0  0
   22.9493   -4.0640    0.2220 C   0  0  0  0  0  0  0  0  0  0  0  0
   21.6121   -3.4888    0.7205 C   0  0  0  0  0  0  0  0  0  0  0  0
   21.0327   -4.3358    1.8467 C   0  0  0  0  0  0  0  0  0  0  0  0
   21.7881   -2.0510    1.2160 C   0  0  0  0  0  0  0  0  0  0  0  0
   24.2346   -6.1059   -0.5251 C   0  0  0  0  0  0  0  0  0  0  0  0
   25.0998   -5.6902   -1.3077 O   0  0  0  0  0  0  0  0  0  0  0  0
   24.6376   -7.1001    0.3355 N   0  0  0  0  0  0  0  0  0  0  0  0
   23.9249   -7.9836    1.3139 C   0  0  1  0  0  0  0  0  0  0  0  0
   24.7539   -9.2575    1.5494 C   0  0  0  0  0  0  0  0  0  0  0  0
   25.3751  -10.0007    0.3529 C   0  0  0  0  0  0  0  0  0  0  0  0
   26.1104  -11.2450    0.8773 C   0  0  0  0  0  0  0  0  0  0  0  0
   24.3366  -10.4125   -0.6837 C   0  0  0  0  0  0  0  0  0  0  0  0
   23.6367   -7.1666    2.6242 C   0  0  0  0  0  0  0  0  0  0  0  0
   23.5407   -5.9308    2.4723 O   0  0  0  0  0  0  0  0  0  0  0  0
   23.3574   -7.6750    3.8929 N   0  0  0  0  0  0  0  0  0  0  0  0
   23.6573   -9.0362    4.3586 C   0  0  0  0  0  0  0  0  0  0  0  0
   22.8458   -6.7328    4.9263 C   0  0  2  0  0  0  0  0  0  0  0  0
   23.9730   -6.1757    5.8343 C   0  0  0  0  0  0  0  0  0  0  0  0
   25.0108   -5.2689    5.1390 C   0  0  0  0  0  0  0  0  0  0  0  0
   24.4217   -3.9596    4.6048 C   0  0  0  0  0  0  0  0  0  0  0  0
   26.1368   -4.9215    6.1162 C   0  0  0  0  0  0  0  0  0  0  0  0
   21.7374   -7.3429    5.8405 C   0  0  0  0  0  0  0  0  0  0  0  0
   21.9662   -8.2582    6.6393 O   0  0  0  0  0  0  0  0  0  0  0  0
   20.4414   -6.9232    5.7581 N   0  0  0  0  0  0  0  0  0  0  0  0
   19.8723   -5.8173    4.9833 C   0  0  1  0  0  0  0  0  0  0  0  0
   18.4437   -6.1614    4.6283 C   0  0  0  0  0  0  0  0  0  0  0  0
   20.2152   -4.4735    5.6943 C   0  0  0  0  0  0  0  0  0  0  0  0
   21.3625   -4.2912    6.1298 O   0  0  0  0  0  0  0  0  0  0  0  0
   19.4157   -3.3794    5.7900 N   0  0  0  0  0  0  0  0  0  0  0  0
   18.0470   -3.2788    6.3088 C   0  0  2  0  0  0  0  0  0  0  0  0
   17.7310   -4.2640    7.4353 C   0  0  0  0  0  0  0  0  0  0  0  0
   16.9606   -3.1917    5.2177 C   0  0  0  0  0  0  0  0  0  0  0  0
   15.9845   -3.9352    5.2592 O   0  0  0  0  0  0  0  0  0  0  0  0
   17.1012   -2.1573    4.2840 N   0  0  0  0  0  0  0  0  0  0  0  0
   16.9116   -0.8041    4.7891 C   0  0  0  0  0  0  0  0  0  0  0  0
   16.6194   -2.3388    2.8925 C   0  0  1  0  0  0  0  0  0  0  0  0
   17.5351   -3.2274    2.0731 C   0  0  0  0  0  0  0  0  0  0  0  0
   17.1394   -3.4029    0.6073 C   0  0  0  0  0  0  0  0  0  0  0  0
   17.6035   -2.2161   -0.2371 C   0  0  0  0  0  0  0  0  0  0  0  0
   17.6926   -4.7581    0.1457 C   0  0  0  0  0  0  0  0  0  0  0  0
   15.0875   -2.4445    2.7185 C   0  0  0  0  0  0  0  0  0  0  0  0
   14.5102   -1.3629    2.5454 O   0  0  0  0  0  0  0  0  0  0  0  0
   14.3964   -3.6440    2.8493 N   0  0  0  0  0  0  0  0  0  0  0  0
   15.0285   -4.9553    2.8003 C   0  0  0  0  0  0  0  0  0  0  0  0
   12.9037   -3.6766    2.7792 C   0  0  1  0  0  0  0  0  0  0  0  0
   12.2380   -2.5468    3.5910 C   0  0  0  0  0  0  0  0  0  0  0  0
   10.7136   -2.5950    3.7374 C   0  0  0  0  0  0  0  0  0  0  0  0
   10.2501   -3.8039    4.5426 C   0  0  0  0  0  0  0  0  0  0  0  0
   10.2549   -1.3022    4.4292 C   0  0  0  0  0  0  0  0  0  0  0  0
   12.4193   -4.0398    1.3233 C   0  0  0  0  0  0  0  0  0  0  0  0
   11.7481   -5.0586    1.1386 O   0  0  0  0  0  0  0  0  0  0  0  0
   12.8686   -3.2542    0.2687 N   0  0  0  0  0  0  0  0  0  0  0  0
   12.3646   -1.8842    0.3102 C   0  0  0  0  0  0  0  0  0  0  0  0
   13.1002   -3.8143   -1.1028 C   0  0  1  0  0  0  0  0  0  0  0  0
   13.4664   -5.3249   -1.3547 C   0  0  0  0  0  0  0  0  0  0  0  0
   14.1965   -5.5331   -2.7060 C   0  0  0  0  0  0  0  0  0  0  0  0
   14.3786   -5.9507   -0.3341 C   0  0  0  0  0  0  0  0  0  0  0  0
   11.9307   -3.6257   -2.0976 C   0  0  0  0  0  0  0  0  0  0  0  0
   10.7705   -3.9190   -1.8235 O   0  0  0  0  0  0  0  0  0  0  0  0
   12.3795   -3.2980   -3.4080 N   0  0  0  0  0  0  0  0  0  0  0  0
   11.5575   -3.8147   -4.5083 C   0  0  0  0  0  0  0  0  0  0  0  0
    6.2073   -0.7955    1.1932 H   0  0  0  0  0  0  0  0  0  0  0  0
    5.5997   -1.6317   -0.2337 H   0  0  0  0  0  0  0  0  0  0  0  0
    5.7572    0.1530   -0.2153 H   0  0  0  0  0  0  0  0  0  0  0  0
    8.3670   -1.1168    0.4048 H   0  0  0  0  0  0  0  0  0  0  0  0
    7.3596   -0.4742   -2.4165 H   0  0  0  0  0  0  0  0  0  0  0  0
    9.8935    0.3705   -1.8978 H   0  0  0  0  0  0  0  0  0  0  0  0
   10.1349   -1.2486   -1.2523 H   0  0  0  0  0  0  0  0  0  0  0  0
    9.9825   -2.2681   -3.4305 H   0  0  0  0  0  0  0  0  0  0  0  0
    9.1428    0.4060   -4.5548 H   0  0  0  0  0  0  0  0  0  0  0  0
    8.1661   -1.0580   -4.3633 H   0  0  0  0  0  0  0  0  0  0  0  0
    9.4851   -1.0605   -5.5075 H   0  0  0  0  0  0  0  0  0  0  0  0
   11.7713   -0.7112   -4.9297 H   0  0  0  0  0  0  0  0  0  0  0  0
   11.3196    1.0059   -3.3983 H   0  0  0  0  0  0  0  0  0  0  0  0
   13.1575   -1.6636   -2.4891 H   0  0  0  0  0  0  0  0  0  0  0  0
   15.4225   -3.5615   -4.6690 H   0  0  0  0  0  0  0  0  0  0  0  0
   17.5343   -1.9700   -3.3306 H   0  0  0  0  0  0  0  0  0  0  0  0
   18.1775   -0.7041   -5.0136 H   0  0  0  0  0  0  0  0  0  0  0  0
   18.0251   -1.9607   -6.2320 H   0  0  0  0  0  0  0  0  0  0  0  0
   20.2083   -2.5677   -6.0718 H   0  0  0  0  0  0  0  0  0  0  0  0
   20.2398   -2.5632   -4.3040 H   0  0  0  0  0  0  0  0  0  0  0  0
   20.7892   -0.1373   -6.0013 H   0  0  0  0  0  0  0  0  0  0  0  0
   21.9466   -1.2371   -5.2549 H   0  0  0  0  0  0  0  0  0  0  0  0
   20.8999   -0.2867   -4.2172 H   0  0  0  0  0  0  0  0  0  0  0  0
   20.4586   -4.8137   -5.9059 H   0  0  0  0  0  0  0  0  0  0  0  0
   18.7562   -4.2868   -6.1432 H   0  0  0  0  0  0  0  0  0  0  0  0
   19.1298   -5.9804   -5.7966 H   0  0  0  0  0  0  0  0  0  0  0  0
   20.7010   -6.3199   -4.0386 H   0  0  0  0  0  0  0  0  0  0  0  0
   19.1903   -6.5432   -3.1928 H   0  0  0  0  0  0  0  0  0  0  0  0
   22.0536   -3.4844   -2.8247 H   0  0  0  0  0  0  0  0  0  0  0  0
   22.6288   -4.8710   -3.7864 H   0  0  0  0  0  0  0  0  0  0  0  0
   23.6880   -4.1363   -2.5690 H   0  0  0  0  0  0  0  0  0  0  0  0
   22.2198   -6.1152    0.1528 H   0  0  0  0  0  0  0  0  0  0  0  0
   23.6538   -4.1149    1.0607 H   0  0  0  0  0  0  0  0  0  0  0  0
   23.4135   -3.3455   -0.4648 H   0  0  0  0  0  0  0  0  0  0  0  0
   20.9018   -3.4668   -0.1131 H   0  0  0  0  0  0  0  0  0  0  0  0
   21.6936   -4.3355    2.7140 H   0  0  0  0  0  0  0  0  0  0  0  0
   20.8442   -5.3680    1.5440 H   0  0  0  0  0  0  0  0  0  0  0  0
   20.0868   -3.9381    2.1946 H   0  0  0  0  0  0  0  0  0  0  0  0
   22.4424   -2.0071    2.0937 H   0  0  0  0  0  0  0  0  0  0  0  0
   20.8203   -1.6213    1.4975 H   0  0  0  0  0  0  0  0  0  0  0  0
   22.2198   -1.4155    0.4364 H   0  0  0  0  0  0  0  0  0  0  0  0
   25.6385   -7.2345    0.2724 H   0  0  0  0  0  0  0  0  0  0  0  0
   22.9531   -8.2333    0.8687 H   0  0  0  0  0  0  0  0  0  0  0  0
   24.1086   -9.9825    2.0574 H   0  0  0  0  0  0  0  0  0  0  0  0
   25.5831   -9.0027    2.2213 H   0  0  0  0  0  0  0  0  0  0  0  0
   26.1210   -9.3588   -0.1294 H   0  0  0  0  0  0  0  0  0  0  0  0
   25.4179  -11.9419    1.3639 H   0  0  0  0  0  0  0  0  0  0  0  0
   26.8740  -10.9677    1.6130 H   0  0  0  0  0  0  0  0  0  0  0  0
   26.6108  -11.7798    0.0638 H   0  0  0  0  0  0  0  0  0  0  0  0
   23.5500  -11.0284   -0.2351 H   0  0  0  0  0  0  0  0  0  0  0  0
   24.8045  -10.9950   -1.4848 H   0  0  0  0  0  0  0  0  0  0  0  0
   23.8676   -9.5372   -1.1419 H   0  0  0  0  0  0  0  0  0  0  0  0
   24.6026   -9.3969    3.9692 H   0  0  0  0  0  0  0  0  0  0  0  0
   22.8335   -9.6973    4.0808 H   0  0  0  0  0  0  0  0  0  0  0  0
   23.7961   -9.0544    5.4413 H   0  0  0  0  0  0  0  0  0  0  0  0
   22.4012   -5.8887    4.4072 H   0  0  0  0  0  0  0  0  0  0  0  0
   23.5213   -5.6157    6.6637 H   0  0  0  0  0  0  0  0  0  0  0  0
   24.4995   -7.0162    6.3051 H   0  0  0  0  0  0  0  0  0  0  0  0
   25.4594   -5.8229    4.3067 H   0  0  0  0  0  0  0  0  0  0  0  0
   24.1121   -3.2968    5.4199 H   0  0  0  0  0  0  0  0  0  0  0  0
   23.5505   -4.1096    3.9706 H   0  0  0  0  0  0  0  0  0  0  0  0
   25.1670   -3.4295    4.0018 H   0  0  0  0  0  0  0  0  0  0  0  0
   25.7631   -4.3125    6.9468 H   0  0  0  0  0  0  0  0  0  0  0  0
   26.9232   -4.3529    5.6082 H   0  0  0  0  0  0  0  0  0  0  0  0
   26.5911   -5.8252    6.5336 H   0  0  0  0  0  0  0  0  0  0  0  0
   19.8590   -7.3484    6.4687 H   0  0  0  0  0  0  0  0  0  0  0  0
   20.4090   -5.7835    4.0330 H   0  0  0  0  0  0  0  0  0  0  0  0
   17.8138   -6.3644    5.4950 H   0  0  0  0  0  0  0  0  0  0  0  0
   18.4143   -7.0654    4.0067 H   0  0  0  0  0  0  0  0  0  0  0  0
   17.9952   -5.3639    4.0542 H   0  0  0  0  0  0  0  0  0  0  0  0
   19.9979   -2.6317    6.1517 H   0  0  0  0  0  0  0  0  0  0  0  0
   18.0217   -2.3004    6.8011 H   0  0  0  0  0  0  0  0  0  0  0  0
   18.0748   -5.2795    7.2364 H   0  0  0  0  0  0  0  0  0  0  0  0
   16.6567   -4.3107    7.6413 H   0  0  0  0  0  0  0  0  0  0  0  0
   18.2302   -3.9464    8.3564 H   0  0  0  0  0  0  0  0  0  0  0  0
   17.3715   -0.6656    5.7666 H   0  0  0  0  0  0  0  0  0  0  0  0
   15.8381   -0.6145    4.8862 H   0  0  0  0  0  0  0  0  0  0  0  0
   17.3530   -0.0849    4.0923 H   0  0  0  0  0  0  0  0  0  0  0  0
   16.8232   -1.3576    2.4287 H   0  0  0  0  0  0  0  0  0  0  0  0
   17.6440   -4.1968    2.5447 H   0  0  0  0  0  0  0  0  0  0  0  0
   18.5274   -2.7671    2.1047 H   0  0  0  0  0  0  0  0  0  0  0  0
   16.0526   -3.4351    0.5110 H   0  0  0  0  0  0  0  0  0  0  0  0
   18.6921   -2.1894   -0.3477 H   0  0  0  0  0  0  0  0  0  0  0  0
   17.2858   -1.2636    0.1976 H   0  0  0  0  0  0  0  0  0  0  0  0
   17.1495   -2.2567   -1.2278 H   0  0  0  0  0  0  0  0  0  0  0  0
   18.7754   -4.7256    0.0084 H   0  0  0  0  0  0  0  0  0  0  0  0
   17.2153   -5.0847   -0.7781 H   0  0  0  0  0  0  0  0  0  0  0  0
   17.4767   -5.5573    0.8596 H   0  0  0  0  0  0  0  0  0  0  0  0
   15.9121   -5.0318    3.4140 H   0  0  0  0  0  0  0  0  0  0  0  0
   15.3629   -5.1369    1.7906 H   0  0  0  0  0  0  0  0  0  0  0  0
   14.3390   -5.7507    3.0934 H   0  0  0  0  0  0  0  0  0  0  0  0
   12.6438   -4.5773    3.3542 H   0  0  0  0  0  0  0  0  0  0  0  0
   12.4705   -1.5599    3.1976 H   0  0  0  0  0  0  0  0  0  0  0  0
   12.6866   -2.5568    4.5963 H   0  0  0  0  0  0  0  0  0  0  0  0
   10.2562   -2.6279    2.7425 H   0  0  0  0  0  0  0  0  0  0  0  0
   10.7259   -3.8300    5.5290 H   0  0  0  0  0  0  0  0  0  0  0  0
   10.4856   -4.7386    4.0257 H   0  0  0  0  0  0  0  0  0  0  0  0
    9.1658   -3.7743    4.6920 H   0  0  0  0  0  0  0  0  0  0  0  0
   10.7131   -1.1973    5.4197 H   0  0  0  0  0  0  0  0  0  0  0  0
    9.1679   -1.2843    4.5521 H   0  0  0  0  0  0  0  0  0  0  0  0
   10.5383   -0.4231    3.8389 H   0  0  0  0  0  0  0  0  0  0  0  0
   12.6330   -1.3676    1.2222 H   0  0  0  0  0  0  0  0  0  0  0  0
   11.2723   -1.9213    0.2940 H   0  0  0  0  0  0  0  0  0  0  0  0
   12.7421   -1.2836   -0.5154 H   0  0  0  0  0  0  0  0  0  0  0  0
   13.9628   -3.2311   -1.4426 H   0  0  0  0  0  0  0  0  0  0  0  0
   12.5424   -5.9177   -1.3852 H   0  0  0  0  0  0  0  0  0  0  0  0
   15.1674   -5.0271   -2.7089 H   0  0  0  0  0  0  0  0  0  0  0  0
   13.6470   -5.1875   -3.5752 H   0  0  0  0  0  0  0  0  0  0  0  0
   14.3618   -6.5979   -2.8922 H   0  0  0  0  0  0  0  0  0  0  0  0
   15.2061   -5.2732   -0.1775 H   0  0  0  0  0  0  0  0  0  0  0  0
   14.7922   -6.8998   -0.6856 H   0  0  0  0  0  0  0  0  0  0  0  0
   13.8667   -6.1575    0.6004 H   0  0  0  0  0  0  0  0  0  0  0  0
   12.0943   -4.6388   -4.9888 H   0  0  0  0  0  0  0  0  0  0  0  0
   11.3481   -3.0501   -5.2607 H   0  0  0  0  0  0  0  0  0  0  0  0
   10.6095   -4.2297   -4.1492 H   0  0  0  0  0  0  0  0  0  0  0  0
  1  2  1  0  0  0  0
  1 88  1  0  0  0  0
  1 89  1  0  0  0  0
  1 90  1  0  0  0  0
  2  3  2  0  0  0  0
  2 91  1  0  0  0  0
  3  4  1  0  0  0  0
  3 92  1  0  0  0  0
  4  5  1  0  0  0  0
  4 93  1  0  0  0  0
  4 94  1  0  0  0  0
  5  6  1  0  0  0  0
  5  7  1  0  0  0  0
  5 95  1  1  0  0  0
  6 96  1  0  0  0  0
  6 97  1  0  0  0  0
  6 98  1  0  0  0  0
  7  8  1  0  0  0  0
  7  9  1  0  0  0  0
  7 99  1  6  0  0  0
  8100  1  0  0  0  0
  9 10  1  0  0  0  0
  9 86  1  0  0  0  0
  9101  1  6  0  0  0
 10 11  2  0  0  0  0
 10 12  1  0  0  0  0
 12 13  1  0  0  0  0
 12102  1  0  0  0  0
 13 14  1  0  0  0  0
 13 17  1  0  0  0  0
 13103  1  6  0  0  0
 14 15  1  0  0  0  0
 14104  1  0  0  0  0
 14105  1  0  0  0  0
 15 16  1  0  0  0  0
 15106  1  0  0  0  0
 15107  1  0  0  0  0
 16108  1  0  0  0  0
 16109  1  0  0  0  0
 16110  1  0  0  0  0
 17 18  2  0  0  0  0
 17 19  1  0  0  0  0
 19 20  1  0  0  0  0
 19 21  1  0  0  0  0
 20111  1  0  0  0  0
 20112  1  0  0  0  0
 20113  1  0  0  0  0
 21 22  1  0  0  0  0
 21114  1  0  0  0  0
 21115  1  0  0  0  0
 22 23  2  0  0  0  0
 22 24  1  0  0  0  0
 24 25  1  0  0  0  0
 24 26  1  0  0  0  0
 25116  1  0  0  0  0
 25117  1  0  0  0  0
 25118  1  0  0  0  0
 26 31  1  0  0  0  0
 26 27  1  0  0  0  0
 26119  1  1  0  0  0
 27 28  1  0  0  0  0
 27120  1  0  0  0  0
 27121  1  0  0  0  0
 28 29  1  0  0  0  0
 28 30  1  0  0  0  0
 28122  1  0  0  0  0
 29123  1  0  0  0  0
 29124  1  0  0  0  0
 29125  1  0  0  0  0
 30126  1  0  0  0  0
 30127  1  0  0  0  0
 30128  1  0  0  0  0
 31 32  2  0  0  0  0
 31 33  1  0  0  0  0
 33 34  1  0  0  0  0
 33129  1  0  0  0  0
 34 35  1  0  0  0  0
 34 39  1  0  0  0  0
 34130  1  6  0  0  0
 35 36  1  0  0  0  0
 35131  1  0  0  0  0
 35132  1  0  0  0  0
 36 37  1  0  0  0  0
 36 38  1  0  0  0  0
 36133  1  0  0  0  0
 37134  1  0  0  0  0
 37135  1  0  0  0  0
 37136  1  0  0  0  0
 38137  1  0  0  0  0
 38138  1  0  0  0  0
 38139  1  0  0  0  0
 39 40  2  0  0  0  0
 39 41  1  0  0  0  0
 41 42  1  0  0  0  0
 41 43  1  0  0  0  0
 42140  1  0  0  0  0
 42141  1  0  0  0  0
 42142  1  0  0  0  0
 43 48  1  0  0  0  0
 43 44  1  0  0  0  0
 43143  1  6  0  0  0
 44 45  1  0  0  0  0
 44144  1  0  0  0  0
 44145  1  0  0  0  0
 45 46  1  0  0  0  0
 45 47  1  0  0  0  0
 45146  1  0  0  0  0
 46147  1  0  0  0  0
 46148  1  0  0  0  0
 46149  1  0  0  0  0
 47150  1  0  0  0  0
 47151  1  0  0  0  0
 47152  1  0  0  0  0
 48 49  2  0  0  0  0
 48 50  1  0  0  0  0
 50 51  1  0  0  0  0
 50153  1  0  0  0  0
 51 52  1  0  0  0  0
 51 53  1  0  0  0  0
 51154  1  6  0  0  0
 52155  1  0  0  0  0
 52156  1  0  0  0  0
 52157  1  0  0  0  0
 53 54  2  0  0  0  0
 53 55  1  0  0  0  0
 55 56  1  0  0  0  0
 55158  1  0  0  0  0
 56 58  1  0  0  0  0
 56 57  1  0  0  0  0
 56159  1  1  0  0  0
 57160  1  0  0  0  0
 57161  1  0  0  0  0
 57162  1  0  0  0  0
 58 59  2  0  0  0  0
 58 60  1  0  0  0  0
 60 61  1  0  0  0  0
 60 62  1  0  0  0  0
 61163  1  0  0  0  0
 61164  1  0  0  0  0
 61165  1  0  0  0  0
 62 63  1  0  0  0  0
 62 67  1  0  0  0  0
 62166  1  6  0  0  0
 63 64  1  0  0  0  0
 63167  1  0  0  0  0
 63168  1  0  0  0  0
 64 65  1  0  0  0  0
 64 66  1  0  0  0  0
 64169  1  0  0  0  0
 65170  1  0  0  0  0
 65171  1  0  0  0  0
 65172  1  0  0  0  0
 66173  1  0  0  0  0
 66174  1  0  0  0  0
 66175  1  0  0  0  0
 67 68  2  0  0  0  0
 67 69  1  0  0  0  0
 69 70  1  0  0  0  0
 69 71  1  0  0  0  0
 70176  1  0  0  0  0
 70177  1  0  0  0  0
 70178  1  0  0  0  0
 71 72  1  0  0  0  0
 71 76  1  0  0  0  0
 71179  1  1  0  0  0
 72 73  1  0  0  0  0
 72180  1  0  0  0  0
 72181  1  0  0  0  0
 73 74  1  0  0  0  0
 73 75  1  0  0  0  0
 73182  1  0  0  0  0
 74183  1  0  0  0  0
 74184  1  0  0  0  0
 74185  1  0  0  0  0
 75186  1  0  0  0  0
 75187  1  0  0  0  0
 75188  1  0  0  0  0
 76 77  2  0  0  0  0
 76 78  1  0  0  0  0
 78 79  1  0  0  0  0
 78 80  1  0  0  0  0
 79189  1  0  0  0  0
 79190  1  0  0  0  0
 79191  1  0  0  0  0
 80 81  1  0  0  0  0
 80 84  1  0  0  0  0
 80192  1  6  0  0  0
 81 82  1  0  0  0  0
 81 83  1  0  0  0  0
 81193  1  0  0  0  0
 82194  1  0  0  0  0
 82195  1  0  0  0  0
 82196  1  0  0  0  0
 83197  1  0  0  0  0
 83198  1  0  0  0  0
 83199  1  0  0  0  0
 84 85  2  0  0  0  0
 84 86  1  0  0  0  0
 86 87  1  0  0  0  0
 87200  1  0  0  0  0
 87201  1  0  0  0  0
 87202  1  0  0  0  0
M  END
>  <Energy>
569.428

$$$$