507273
  -OEChem-03242010103D

 80 88  0     1  0  0  0  0  0999 V2000
    0.5821   -3.1373    1.7673 O   0  0  0  0  0  0  0  0  0  0  0  0
   -0.5883    3.2264   -2.5062 O   0  0  0  0  0  0  0  0  0  0  0  0
   -3.7896    0.6532    0.9865 O   0  0  0  0  0  0  0  0  0  0  0  0
    3.7911   -0.8998    0.7567 O   0  0  0  0  0  0  0  0  0  0  0  0
   -3.8804    1.0733   -1.2930 O   0  0  0  0  0  0  0  0  0  0  0  0
    3.8764   -0.6695   -1.5499 O   0  0  0  0  0  0  0  0  0  0  0  0
   -1.8706    0.4952   -0.2930 N   0  0  0  0  0  0  0  0  0  0  0  0
    1.8693   -0.3917   -0.4236 N   0  0  0  0  0  0  0  0  0  0  0  0
   -0.2534   -1.1787    0.6909 C   0  0  0  0  0  0  0  0  0  0  0  0
    0.2577    1.2846   -1.4080 C   0  0  0  0  0  0  0  0  0  0  0  0
    0.2552    0.9426    0.9908 C   0  0  0  0  0  0  0  0  0  0  0  0
   -0.2621   -0.8412   -1.7084 C   0  0  0  0  0  0  0  0  0  0  0  0
   -1.0686    0.1293    0.9017 C   0  0  1  0  0  0  0  0  0  0  0  0
    1.0705   -0.3722    0.8279 C   0  0  2  0  0  0  0  0  0  0  0  0
   -1.0678    0.4832   -1.5436 C   0  0  1  0  0  0  0  0  0  0  0  0
    1.0633   -0.0331   -1.6195 C   0  0  2  0  0  0  0  0  0  0  0  0
   -0.4333   -1.9420   -0.6407 C   0  0  2  0  0  0  0  0  0  0  0  0
    0.4323    2.0457   -0.0770 C   0  0  1  0  0  0  0  0  0  0  0  0
   -0.4017   -2.1225    1.8785 C   0  0  0  0  0  0  0  0  0  0  0  0
    0.4121    2.2256   -2.5964 C   0  0  0  0  0  0  0  0  0  0  0  0
   -1.7613   -2.6810   -0.6844 C   0  0  0  0  0  0  0  0  0  0  0  0
    1.7609    2.7677    0.0828 C   0  0  0  0  0  0  0  0  0  0  0  0
   -3.2367    0.7721   -0.2893 C   0  0  0  0  0  0  0  0  0  0  0  0
    3.2353   -0.6589   -0.5004 C   0  0  0  0  0  0  0  0  0  0  0  0
   -2.9080   -2.0290   -1.1381 C   0  0  0  0  0  0  0  0  0  0  0  0
    2.8937    2.2996   -0.5830 C   0  0  0  0  0  0  0  0  0  0  0  0
   -1.8332   -4.0112   -0.2702 C   0  0  0  0  0  0  0  0  0  0  0  0
    1.8469    3.8981    0.8956 C   0  0  0  0  0  0  0  0  0  0  0  0
   -4.1263   -2.7071   -1.1778 C   0  0  0  0  0  0  0  0  0  0  0  0
    4.1125    2.9621   -0.4360 C   0  0  0  0  0  0  0  0  0  0  0  0
   -3.0515   -4.6893   -0.3101 C   0  0  0  0  0  0  0  0  0  0  0  0
    3.0657    4.5604    1.0425 C   0  0  0  0  0  0  0  0  0  0  0  0
   -4.1980   -4.0372   -0.7638 C   0  0  0  0  0  0  0  0  0  0  0  0
    4.1983    4.0924    0.3768 C   0  0  0  0  0  0  0  0  0  0  0  0
   -5.1601    0.9233    1.0333 C   0  0  0  0  0  0  0  0  0  0  0  0
    5.1614   -1.1725    0.7235 C   0  0  0  0  0  0  0  0  0  0  0  0
   -5.6070    2.2237    1.2673 C   0  0  0  0  0  0  0  0  0  0  0  0
    5.6079   -2.4868    0.5855 C   0  0  0  0  0  0  0  0  0  0  0  0
   -6.0811   -0.1076    0.8454 C   0  0  0  0  0  0  0  0  0  0  0  0
    6.0829   -0.1303    0.8277 C   0  0  0  0  0  0  0  0  0  0  0  0
   -6.9749    2.4934    1.3133 C   0  0  0  0  0  0  0  0  0  0  0  0
    6.9756   -2.7589    0.5517 C   0  0  0  0  0  0  0  0  0  0  0  0
   -7.4488    0.1622    0.8914 C   0  0  0  0  0  0  0  0  0  0  0  0
    7.4505   -0.4024    0.7939 C   0  0  0  0  0  0  0  0  0  0  0  0
   -7.8957    1.4625    1.1254 C   0  0  0  0  0  0  0  0  0  0  0  0
    7.8969   -1.7166    0.6559 C   0  0  0  0  0  0  0  0  0  0  0  0
    0.3762    1.3729    1.9962 H   0  0  0  0  0  0  0  0  0  0  0  0
   -0.3878   -1.2735   -2.7123 H   0  0  0  0  0  0  0  0  0  0  0  0
   -1.6389    0.1643    1.8360 H   0  0  0  0  0  0  0  0  0  0  0  0
    1.6612   -0.5995    1.7217 H   0  0  0  0  0  0  0  0  0  0  0  0
   -1.6644    0.7275   -2.4307 H   0  0  0  0  0  0  0  0  0  0  0  0
    1.6406   -0.0821   -2.5504 H   0  0  0  0  0  0  0  0  0  0  0  0
    0.3706   -2.6772   -0.7829 H   0  0  0  0  0  0  0  0  0  0  0  0
   -0.3722    2.7856    0.0341 H   0  0  0  0  0  0  0  0  0  0  0  0
   -1.3963   -2.5706    1.9541 H   0  0  0  0  0  0  0  0  0  0  0  0
   -0.2266   -1.5971    2.8254 H   0  0  0  0  0  0  0  0  0  0  0  0
    0.2652    1.6951   -3.5450 H   0  0  0  0  0  0  0  0  0  0  0  0
    1.3851    2.7163   -2.6572 H   0  0  0  0  0  0  0  0  0  0  0  0
    0.4757   -3.7247    2.5347 H   0  0  0  0  0  0  0  0  0  0  0  0
   -0.4874    3.8039   -3.2819 H   0  0  0  0  0  0  0  0  0  0  0  0
   -2.8862   -1.1107   -1.6930 H   0  0  0  0  0  0  0  0  0  0  0  0
    2.8770    1.5612   -1.3620 H   0  0  0  0  0  0  0  0  0  0  0  0
   -0.9483   -4.5404    0.0711 H   0  0  0  0  0  0  0  0  0  0  0  0
    0.9717    4.2712    1.4207 H   0  0  0  0  0  0  0  0  0  0  0  0
   -5.0071   -2.2200   -1.5864 H   0  0  0  0  0  0  0  0  0  0  0  0
    4.9853    2.6248   -0.9879 H   0  0  0  0  0  0  0  0  0  0  0  0
   -3.1063   -5.7269    0.0060 H   0  0  0  0  0  0  0  0  0  0  0  0
    3.1323    5.4416    1.6738 H   0  0  0  0  0  0  0  0  0  0  0  0
   -5.1437   -4.5694   -0.8085 H   0  0  0  0  0  0  0  0  0  0  0  0
    5.1451    4.6138    0.4832 H   0  0  0  0  0  0  0  0  0  0  0  0
   -4.8944    3.0306    1.4147 H   0  0  0  0  0  0  0  0  0  0  0  0
    4.8948   -3.3026    0.5044 H   0  0  0  0  0  0  0  0  0  0  0  0
   -5.7423   -1.1244    0.6769 H   0  0  0  0  0  0  0  0  0  0  0  0
    5.7438    0.8938    0.9462 H   0  0  0  0  0  0  0  0  0  0  0  0
   -7.3229    3.5058    1.4957 H   0  0  0  0  0  0  0  0  0  0  0  0
    7.3232   -3.7822    0.4445 H   0  0  0  0  0  0  0  0  0  0  0  0
   -8.1657   -0.6409    0.7481 H   0  0  0  0  0  0  0  0  0  0  0  0
    8.1678    0.4088    0.8775 H   0  0  0  0  0  0  0  0  0  0  0  0
   -8.9606    1.6724    1.1621 H   0  0  0  0  0  0  0  0  0  0  0  0
    8.9617   -1.9286    0.6301 H   0  0  0  0  0  0  0  0  0  0  0  0
  1 19  1  0  0  0  0
  1 59  1  0  0  0  0
  2 20  1  0  0  0  0
  2 60  1  0  0  0  0
  3 23  1  0  0  0  0
  3 35  1  0  0  0  0
  4 24  1  0  0  0  0
  4 36  1  0  0  0  0
  5 23  2  0  0  0  0
  6 24  2  0  0  0  0
  7 13  1  0  0  0  0
  7 15  1  0  0  0  0
  7 23  1  0  0  0  0
  8 14  1  0  0  0  0
  8 16  1  0  0  0  0
  8 24  1  0  0  0  0
  9 13  1  0  0  0  0
  9 14  1  0  0  0  0
  9 17  1  0  0  0  0
  9 19  1  0  0  0  0
 10 15  1  0  0  0  0
 10 16  1  0  0  0  0
 10 18  1  0  0  0  0
 10 20  1  0  0  0  0
 11 13  1  0  0  0  0
 11 14  1  0  0  0  0
 11 18  1  0  0  0  0
 11 47  1  0  0  0  0
 12 15  1  0  0  0  0
 12 16  1  0  0  0  0
 12 17  1  0  0  0  0
 12 48  1  0  0  0  0
 13 49  1  0  0  0  0
 14 50  1  0  0  0  0
 15 51  1  0  0  0  0
 16 52  1  0  0  0  0
 17 21  1  0  0  0  0
 17 53  1  0  0  0  0
 18 22  1  0  0  0  0
 18 54  1  0  0  0  0
 19 55  1  0  0  0  0
 19 56  1  0  0  0  0
 20 57  1  0  0  0  0
 20 58  1  0  0  0  0
 21 25  2  0  0  0  0
 21 27  1  0  0  0  0
 22 26  2  0  0  0  0
 22 28  1  0  0  0  0
 25 29  1  0  0  0  0
 25 61  1  0  0  0  0
 26 30  1  0  0  0  0
 26 62  1  0  0  0  0
 27 31  2  0  0  0  0
 27 63  1  0  0  0  0
 28 32  2  0  0  0  0
 28 64  1  0  0  0  0
 29 33  2  0  0  0  0
 29 65  1  0  0  0  0
 30 34  2  0  0  0  0
 30 66  1  0  0  0  0
 31 33  1  0  0  0  0
 31 67  1  0  0  0  0
 32 34  1  0  0  0  0
 32 68  1  0  0  0  0
 33 69  1  0  0  0  0
 34 70  1  0  0  0  0
 35 37  2  0  0  0  0
 35 39  1  0  0  0  0
 36 38  2  0  0  0  0
 36 40  1  0  0  0  0
 37 41  1  0  0  0  0
 37 71  1  0  0  0  0
 38 42  1  0  0  0  0
 38 72  1  0  0  0  0
 39 43  2  0  0  0  0
 39 73  1  0  0  0  0
 40 44  2  0  0  0  0
 40 74  1  0  0  0  0
 41 45  2  0  0  0  0
 41 75  1  0  0  0  0
 42 46  2  0  0  0  0
 42 76  1  0  0  0  0
 43 45  1  0  0  0  0
 43 77  1  0  0  0  0
 44 46  1  0  0  0  0
 44 78  1  0  0  0  0
 45 79  1  0  0  0  0
 46 80  1  0  0  0  0
M  END
> <PUBCHEM_COMPOUND_CID>
507273

> <PUBCHEM_CONFORMER_RMSD>
1.2

> <PUBCHEM_CONFORMER_DIVERSEORDER>
1
16
4
15
9
14
12
3
13
2
10
5
8
11
6
7

> <PUBCHEM_MMFF94_PARTIAL_CHARGES>
64
1 -0.68
13 0.22
14 0.22
15 0.22
16 0.22
17 0.14
18 0.14
19 0.28
2 -0.68
20 0.28
21 -0.14
22 -0.14
23 0.78
24 0.78
25 -0.15
26 -0.15
27 -0.15
28 -0.15
29 -0.15
3 -0.23
30 -0.15
31 -0.15
32 -0.15
33 -0.15
34 -0.15
35 0.08
36 0.08
37 -0.15
38 -0.15
39 -0.15
4 -0.23
40 -0.15
41 -0.15
42 -0.15
43 -0.15
44 -0.15
45 -0.15
46 -0.15
5 -0.57
59 0.4
6 -0.57
60 0.4
61 0.15
62 0.15
63 0.15
64 0.15
65 0.15
66 0.15
67 0.15
68 0.15
69 0.15
7 -0.51
70 0.15
71 0.15
72 0.15
73 0.15
74 0.15
75 0.15
76 0.15
77 0.15
78 0.15
79 0.15
8 -0.51
80 0.15

> <PUBCHEM_EFFECTIVE_ROTOR_COUNT>
10.8

> <PUBCHEM_PHARMACOPHORE_FEATURES>
16
1 1 acceptor
1 1 donor
1 2 acceptor
1 2 donor
1 5 acceptor
1 6 acceptor
4 10 12 15 16 rings
4 9 11 13 14 rings
6 21 25 27 29 31 33 rings
6 22 26 28 30 32 34 rings
6 35 37 39 41 43 45 rings
6 36 38 40 42 44 46 rings
6 7 10 11 13 15 18 rings
6 7 9 12 13 15 17 rings
6 8 10 11 14 16 18 rings
6 8 9 12 14 16 17 rings

> <PUBCHEM_HEAVY_ATOM_COUNT>
46

> <PUBCHEM_ATOM_DEF_STEREO_COUNT>
2

> <PUBCHEM_ATOM_UDEF_STEREO_COUNT>
4

> <PUBCHEM_BOND_DEF_STEREO_COUNT>
0

> <PUBCHEM_BOND_UDEF_STEREO_COUNT>
0

> <PUBCHEM_ISOTOPIC_ATOM_COUNT>
0

> <PUBCHEM_COMPONENT_COUNT>
1

> <PUBCHEM_CACTVS_TAUTO_COUNT>
1

> <PUBCHEM_CONFORMER_ID>
0007BD8900000001

> <PUBCHEM_MMFF94_ENERGY>
187.4953

> <PUBCHEM_FEATURE_SELFOVERLAP>
94.256

> <PUBCHEM_SHAPE_FINGERPRINT>
10050765 1 18269838794603639683
10076449 9 17458355087470393852
10290309 65 18046898287289758870
10653451 467 18188216411598476803
1100329 8 18412544309993707210
11578080 2 18126016089648598977
12058002 1 17057838180942089731
12107183 9 18413108350863560043
12608794 3 18411972542683521605
13140716 1 18339360867583262773
13540713 5 18191032398363358175
14394314 77 18411133607207338594
14849402 71 18409454708180144616
14955137 171 18336553711445196307
15064986 96 17703799154286064268
15219462 58 17831594428013676202
15776043 110 18334016077643160859
15849732 13 18261678082090452467
16112460 7 18337672018266304763
19301679 30 17979639258042766323
21583282 1 17823439213058537644
22311459 1 18341050718186750386
23559900 14 18267848627709113882
249057 3 18413671296537896587
3178227 256 18335145237139718577
4112364 45 17203600515110509960
563151 248 18334861602074351131
57527295 17 18192724551654715996
57527358 35 18197776806972443203
9896288 288 17766279769712134400

> <PUBCHEM_SHAPE_MULTIPOLES>
901.48
16.93
5.63
1.77
0.04
0.11
-0.69
1.02
8.75
-0.64
0.13
0.61
-0.49
-2.65

> <PUBCHEM_SHAPE_SELFOVERLAP>
2043.53

> <PUBCHEM_SHAPE_VOLUME>
457.4

> <PUBCHEM_COORDINATE_TYPE>
2
5
10

$$$$