44285868
  -OEChem-03242010093D

 67 68  0     1  0  0  0  0  0999 V2000
    2.1652   -2.7759   -0.0931 O   0  0  0  0  0  0  0  0  0  0  0  0
   -2.3547    0.7642    0.2695 O   0  0  0  0  0  0  0  0  0  0  0  0
   -2.3050   -1.6440   -1.1049 O   0  0  0  0  0  0  0  0  0  0  0  0
    0.2537    0.4512    2.0200 O   0  0  0  0  0  0  0  0  0  0  0  0
   -1.7332   -2.4522    0.9815 O   0  0  0  0  0  0  0  0  0  0  0  0
   -3.6515    2.3969   -0.6879 O   0  0  0  0  0  0  0  0  0  0  0  0
    3.0869   -4.8809    0.5792 O   0  0  0  0  0  0  0  0  0  0  0  0
    0.4423    0.5454   -0.2957 N   0  0  0  0  0  0  0  0  0  0  0  0
    1.5215   -0.4652   -0.3638 C   0  0  2  0  0  0  0  0  0  0  0  0
    1.0559   -1.8832    0.0562 C   0  0  1  0  0  0  0  0  0  0  0  0
    2.7705   -0.0070    0.4014 C   0  0  0  0  0  0  0  0  0  0  0  0
   -1.4408    1.6933    0.8794 C   0  0  2  0  0  0  0  0  0  0  0  0
   -0.1000   -2.4277   -0.8006 C   0  0  0  0  0  0  0  0  0  0  0  0
   -0.1657    0.8577    0.9326 C   0  0  0  0  0  0  0  0  0  0  0  0
   -1.9650    2.0631    2.2590 C   0  0  0  0  0  0  0  0  0  0  0  0
    3.2751    1.3067   -0.1181 C   0  0  0  0  0  0  0  0  0  0  0  0
    0.0888    1.1565   -1.5788 C   0  0  0  0  0  0  0  0  0  0  0  0
   -4.0635    0.0633   -1.2318 C   0  0  1  0  0  0  0  0  0  0  0  0
   -3.6604   -1.3343   -0.6933 C   0  0  1  0  0  0  0  0  0  0  0  0
   -1.4570   -2.1812   -0.1800 C   0  0  0  0  0  0  0  0  0  0  0  0
   -2.8781    3.2849    2.1779 C   0  0  0  0  0  0  0  0  0  0  0  0
   -2.7030    0.8832    2.8882 C   0  0  0  0  0  0  0  0  0  0  0  0
   -3.3596    1.2194   -0.5180 C   0  0  0  0  0  0  0  0  0  0  0  0
   -3.8274    0.2216   -2.7347 C   0  0  0  0  0  0  0  0  0  0  0  0
    4.2095    1.3344   -1.1532 C   0  0  0  0  0  0  0  0  0  0  0  0
    2.8098    2.5002    0.4336 C   0  0  0  0  0  0  0  0  0  0  0  0
   -4.5640   -2.4483   -1.2146 C   0  0  0  0  0  0  0  0  0  0  0  0
    2.0285   -3.9341    0.7240 C   0  0  0  0  0  0  0  0  0  0  0  0
    4.6789    2.5559   -1.6367 C   0  0  0  0  0  0  0  0  0  0  0  0
    3.2790    3.7217   -0.0497 C   0  0  0  0  0  0  0  0  0  0  0  0
    4.2136    3.7495   -1.0848 C   0  0  0  0  0  0  0  0  0  0  0  0
    4.3495   -4.3352    0.9375 C   0  0  0  0  0  0  0  0  0  0  0  0
    1.8221   -0.5449   -1.4196 H   0  0  0  0  0  0  0  0  0  0  0  0
    0.7719   -1.8552    1.1150 H   0  0  0  0  0  0  0  0  0  0  0  0
    3.5723   -0.7503    0.3031 H   0  0  0  0  0  0  0  0  0  0  0  0
    2.5889    0.0665    1.4796 H   0  0  0  0  0  0  0  0  0  0  0  0
   -1.2728    2.5888    0.2749 H   0  0  0  0  0  0  0  0  0  0  0  0
   -0.0338   -3.5050   -0.9828 H   0  0  0  0  0  0  0  0  0  0  0  0
   -0.0658   -1.9741   -1.7985 H   0  0  0  0  0  0  0  0  0  0  0  0
   -1.1238    2.3434    2.9059 H   0  0  0  0  0  0  0  0  0  0  0  0
    0.9964    1.5365   -2.0569 H   0  0  0  0  0  0  0  0  0  0  0  0
   -0.6110    1.9844   -1.4937 H   0  0  0  0  0  0  0  0  0  0  0  0
   -0.3546    0.3885   -2.2180 H   0  0  0  0  0  0  0  0  0  0  0  0
   -5.1320    0.2013   -1.0193 H   0  0  0  0  0  0  0  0  0  0  0  0
   -3.7388   -1.3218    0.4012 H   0  0  0  0  0  0  0  0  0  0  0  0
   -3.8311    3.0609    1.6919 H   0  0  0  0  0  0  0  0  0  0  0  0
   -2.3967    4.1105    1.6437 H   0  0  0  0  0  0  0  0  0  0  0  0
   -3.1142    3.6421    3.1869 H   0  0  0  0  0  0  0  0  0  0  0  0
   -3.6500    0.6628    2.3837 H   0  0  0  0  0  0  0  0  0  0  0  0
   -2.9514    1.1170    3.9300 H   0  0  0  0  0  0  0  0  0  0  0  0
   -2.0996   -0.0293    2.9009 H   0  0  0  0  0  0  0  0  0  0  0  0
   -2.7667    0.1247   -2.9885 H   0  0  0  0  0  0  0  0  0  0  0  0
   -4.1510    1.2108   -3.0777 H   0  0  0  0  0  0  0  0  0  0  0  0
   -4.3887   -0.5209   -3.3090 H   0  0  0  0  0  0  0  0  0  0  0  0
   -4.4473   -2.5914   -2.2935 H   0  0  0  0  0  0  0  0  0  0  0  0
   -5.6159   -2.2449   -0.9933 H   0  0  0  0  0  0  0  0  0  0  0  0
   -4.2919   -3.4019   -0.7485 H   0  0  0  0  0  0  0  0  0  0  0  0
    4.5779    0.4115   -1.5933 H   0  0  0  0  0  0  0  0  0  0  0  0
    2.0972    2.5008    1.2527 H   0  0  0  0  0  0  0  0  0  0  0  0
    1.9745   -3.6379    1.7791 H   0  0  0  0  0  0  0  0  0  0  0  0
    1.1076   -4.4724    0.4851 H   0  0  0  0  0  0  0  0  0  0  0  0
    5.4062    2.5777   -2.4430 H   0  0  0  0  0  0  0  0  0  0  0  0
    2.9197    4.6510    0.3826 H   0  0  0  0  0  0  0  0  0  0  0  0
    4.5795    4.7005   -1.4606 H   0  0  0  0  0  0  0  0  0  0  0  0
    5.1008   -5.1251    0.8534 H   0  0  0  0  0  0  0  0  0  0  0  0
    4.3348   -3.9766    1.9712 H   0  0  0  0  0  0  0  0  0  0  0  0
    4.6258   -3.5220    0.2597 H   0  0  0  0  0  0  0  0  0  0  0  0
  1 10  1  0  0  0  0
  1 28  1  0  0  0  0
  2 12  1  0  0  0  0
  2 23  1  0  0  0  0
  3 19  1  0  0  0  0
  3 20  1  0  0  0  0
  4 14  2  0  0  0  0
  5 20  2  0  0  0  0
  6 23  2  0  0  0  0
  7 28  1  0  0  0  0
  7 32  1  0  0  0  0
  8  9  1  0  0  0  0
  8 14  1  0  0  0  0
  8 17  1  0  0  0  0
  9 10  1  0  0  0  0
  9 11  1  0  0  0  0
  9 33  1  0  0  0  0
 10 13  1  0  0  0  0
 10 34  1  0  0  0  0
 11 16  1  0  0  0  0
 11 35  1  0  0  0  0
 11 36  1  0  0  0  0
 12 14  1  0  0  0  0
 12 15  1  0  0  0  0
 12 37  1  0  0  0  0
 13 20  1  0  0  0  0
 13 38  1  0  0  0  0
 13 39  1  0  0  0  0
 15 21  1  0  0  0  0
 15 22  1  0  0  0  0
 15 40  1  0  0  0  0
 16 25  2  0  0  0  0
 16 26  1  0  0  0  0
 17 41  1  0  0  0  0
 17 42  1  0  0  0  0
 17 43  1  0  0  0  0
 18 19  1  0  0  0  0
 18 23  1  0  0  0  0
 18 24  1  0  0  0  0
 18 44  1  0  0  0  0
 19 27  1  0  0  0  0
 19 45  1  0  0  0  0
 21 46  1  0  0  0  0
 21 47  1  0  0  0  0
 21 48  1  0  0  0  0
 22 49  1  0  0  0  0
 22 50  1  0  0  0  0
 22 51  1  0  0  0  0
 24 52  1  0  0  0  0
 24 53  1  0  0  0  0
 24 54  1  0  0  0  0
 25 29  1  0  0  0  0
 25 58  1  0  0  0  0
 26 30  2  0  0  0  0
 26 59  1  0  0  0  0
 27 55  1  0  0  0  0
 27 56  1  0  0  0  0
 27 57  1  0  0  0  0
 28 60  1  0  0  0  0
 28 61  1  0  0  0  0
 29 31  2  0  0  0  0
 29 62  1  0  0  0  0
 30 31  1  0  0  0  0
 30 63  1  0  0  0  0
 31 64  1  0  0  0  0
 32 65  1  0  0  0  0
 32 66  1  0  0  0  0
 32 67  1  0  0  0  0
M  END
> <PUBCHEM_COMPOUND_CID>
44285868

> <PUBCHEM_CONFORMER_RMSD>
1

> <PUBCHEM_CONFORMER_DIVERSEORDER>
2
3
28
16
14
30
8
4
24
23
6
5
19
13
21
25
27
22
11
17
7
20
31
15
9
12
29
10
26
1
18

> <PUBCHEM_MMFF94_PARTIAL_CHARGES>
32
1 -0.56
10 0.28
11 0.14
12 0.34
13 0.06
14 0.57
16 -0.14
17 0.3
18 0.06
19 0.28
2 -0.43
20 0.66
23 0.66
25 -0.15
26 -0.15
28 0.56
29 -0.15
3 -0.43
30 -0.15
31 -0.15
32 0.28
4 -0.57
5 -0.57
58 0.15
59 0.15
6 -0.57
62 0.15
63 0.15
64 0.15
7 -0.56
8 -0.66
9 0.3

> <PUBCHEM_EFFECTIVE_ROTOR_COUNT>
7.8

> <PUBCHEM_PHARMACOPHORE_FEATURES>
7
1 1 acceptor
1 4 acceptor
1 5 acceptor
1 6 acceptor
1 7 acceptor
3 15 21 22 hydrophobe
6 16 25 26 29 30 31 rings

> <PUBCHEM_HEAVY_ATOM_COUNT>
32

> <PUBCHEM_ATOM_DEF_STEREO_COUNT>
5

> <PUBCHEM_ATOM_UDEF_STEREO_COUNT>
0

> <PUBCHEM_BOND_DEF_STEREO_COUNT>
0

> <PUBCHEM_BOND_UDEF_STEREO_COUNT>
0

> <PUBCHEM_ISOTOPIC_ATOM_COUNT>
0

> <PUBCHEM_COMPONENT_COUNT>
1

> <PUBCHEM_CACTVS_TAUTO_COUNT>
8

> <PUBCHEM_CONFORMER_ID>
02A3BFAC00000002

> <PUBCHEM_MMFF94_ENERGY>
87.7907

> <PUBCHEM_FEATURE_SELFOVERLAP>
35.557

> <PUBCHEM_SHAPE_FINGERPRINT>
10759866 29 18410852170257313239
1100329 8 18123464982370228955
11582403 64 17169522260034497213
11725454 13 17241309356989951277
12293681 160 17983861365143460560
12553582 1 17691704289572283670
12788726 201 17984993840967201040
133893 2 18335987450182694214
13583140 156 17970365731780380371
13911987 19 18049447237982265165
13941206 138 18191590959372002742
14114211 68 18263652908010682663
14117953 113 17477478708165010685
14251757 5 17543921556208103340
14787075 74 17984701375036940933
15842332 3 18129387007489023313
17980427 23 17628343883954362106
19319366 153 18124580131715681838
21796203 349 17545643000448842842
22907989 373 18126298672647945577
23558518 356 18270691882578026082
23559900 14 18267847446023258770
25147074 1 18129381501493709587
283562 15 18124043587236500394
3380486 145 17328304645466987031
394222 165 17751335478223631394
469060 322 17753911694202547259
9981440 41 18190733331264133826

> <PUBCHEM_SHAPE_MULTIPOLES>
612.48
9.04
5.84
2.15
1.98
5.77
-0.58
-2.94
3.95
6.63
-1.85
-2.13
-1.33
-3.71

> <PUBCHEM_SHAPE_SELFOVERLAP>
1251.341

> <PUBCHEM_SHAPE_VOLUME>
351

> <PUBCHEM_COORDINATE_TYPE>
2
5
10

$$$$