44565480
  -OEChem-03242010103D

 63 66  0     1  0  0  0  0  0999 V2000
    9.5503   -0.5194   -2.0782 O   0  0  0  0  0  0  0  0  0  0  0  0
   10.3406    0.9628    0.1343 O   0  0  0  0  0  0  0  0  0  0  0  0
   -4.6129    0.6875    0.5158 O   0  0  0  0  0  0  0  0  0  0  0  0
  -12.0115    0.5385   -0.9510 O   0  5  0  0  0  0  0  0  0  0  0  0
  -11.1689    2.4712   -0.3394 O   0  0  0  0  0  0  0  0  0  0  0  0
    4.0296   -0.1168    0.5311 N   0  0  2  0  0  0  0  0  0  0  0  0
   -3.6946   -1.4439    0.1948 N   0  0  0  0  0  0  0  0  0  0  0  0
   -5.9515   -1.1061   -0.1628 N   0  0  0  0  0  0  0  0  0  0  0  0
  -11.0400    1.2501   -0.5983 N   0  3  0  0  0  0  0  0  0  0  0  0
    4.2640    1.1910    1.1556 C   0  0  0  0  0  0  0  0  0  0  0  0
    4.8591   -0.2594   -0.6786 C   0  0  0  0  0  0  0  0  0  0  0  0
    5.7016    1.2676    1.6796 C   0  0  0  0  0  0  0  0  0  0  0  0
    6.3208    0.0439   -0.4407 C   0  0  0  0  0  0  0  0  0  0  0  0
    6.7191    0.8140    0.6655 C   0  0  0  0  0  0  0  0  0  0  0  0
    2.6152   -0.2884    0.2014 C   0  0  0  0  0  0  0  0  0  0  0  0
    1.8080   -0.6813    1.4390 C   0  0  0  0  0  0  0  0  0  0  0  0
    7.2832   -0.3892   -1.3628 C   0  0  0  0  0  0  0  0  0  0  0  0
    8.0760    1.1076    0.8534 C   0  0  0  0  0  0  0  0  0  0  0  0
    8.6308   -0.0835   -1.1724 C   0  0  0  0  0  0  0  0  0  0  0  0
    9.0268    0.6621   -0.0644 C   0  0  0  0  0  0  0  0  0  0  0  0
    0.3506   -0.8830    1.1084 C   0  0  0  0  0  0  0  0  0  0  0  0
   -0.5375    0.1898    1.1874 C   0  0  0  0  0  0  0  0  0  0  0  0
   -0.1096   -2.1426    0.7247 C   0  0  0  0  0  0  0  0  0  0  0  0
   -1.8858    0.0029    0.8829 C   0  0  0  0  0  0  0  0  0  0  0  0
   -1.4579   -2.3296    0.4203 C   0  0  0  0  0  0  0  0  0  0  0  0
   -2.3460   -1.2568    0.4994 C   0  0  0  0  0  0  0  0  0  0  0  0
    9.8379    0.3444   -3.1761 C   0  0  0  0  0  0  0  0  0  0  0  0
   11.1092    0.0350    0.8979 C   0  0  0  0  0  0  0  0  0  0  0  0
   -4.7451   -0.4942    0.2136 C   0  0  0  0  0  0  0  0  0  0  0  0
   -7.2316   -0.5133   -0.2719 C   0  0  0  0  0  0  0  0  0  0  0  0
   -8.3262   -1.2847   -0.6626 C   0  0  0  0  0  0  0  0  0  0  0  0
   -7.3991    0.8423    0.0109 C   0  0  0  0  0  0  0  0  0  0  0  0
   -9.5881   -0.7004   -0.7709 C   0  0  0  0  0  0  0  0  0  0  0  0
   -8.6610    1.4266   -0.0976 C   0  0  0  0  0  0  0  0  0  0  0  0
   -9.7555    0.6553   -0.4885 C   0  0  0  0  0  0  0  0  0  0  0  0
    4.0829    2.0023    0.4370 H   0  0  0  0  0  0  0  0  0  0  0  0
    3.5964    1.3642    2.0061 H   0  0  0  0  0  0  0  0  0  0  0  0
    4.7772   -1.2934   -1.0368 H   0  0  0  0  0  0  0  0  0  0  0  0
    4.5014    0.4068   -1.4753 H   0  0  0  0  0  0  0  0  0  0  0  0
    5.8008    0.6326    2.5693 H   0  0  0  0  0  0  0  0  0  0  0  0
    5.9128    2.3007    1.9805 H   0  0  0  0  0  0  0  0  0  0  0  0
    2.5035   -1.0992   -0.5320 H   0  0  0  0  0  0  0  0  0  0  0  0
    2.2016    0.6104   -0.2757 H   0  0  0  0  0  0  0  0  0  0  0  0
    1.8814    0.0756    2.2286 H   0  0  0  0  0  0  0  0  0  0  0  0
    2.2116   -1.6043    1.8765 H   0  0  0  0  0  0  0  0  0  0  0  0
    6.9795   -0.9676   -2.2324 H   0  0  0  0  0  0  0  0  0  0  0  0
    8.3909    1.6864    1.7186 H   0  0  0  0  0  0  0  0  0  0  0  0
   -0.1889    1.1758    1.4833 H   0  0  0  0  0  0  0  0  0  0  0  0
    0.5730   -2.9856    0.6579 H   0  0  0  0  0  0  0  0  0  0  0  0
   -2.5081    0.8822    0.9676 H   0  0  0  0  0  0  0  0  0  0  0  0
   -1.8027   -3.3165    0.1224 H   0  0  0  0  0  0  0  0  0  0  0  0
   10.5920   -0.1386   -3.8035 H   0  0  0  0  0  0  0  0  0  0  0  0
   10.2378    1.2993   -2.8208 H   0  0  0  0  0  0  0  0  0  0  0  0
    8.9386    0.5134   -3.7768 H   0  0  0  0  0  0  0  0  0  0  0  0
   10.7052   -0.0550    1.9112 H   0  0  0  0  0  0  0  0  0  0  0  0
   11.1252   -0.9451    0.4109 H   0  0  0  0  0  0  0  0  0  0  0  0
   12.1342    0.4103    0.9620 H   0  0  0  0  0  0  0  0  0  0  0  0
   -3.9541   -2.3891   -0.0765 H   0  0  0  0  0  0  0  0  0  0  0  0
   -5.9104   -2.0973   -0.3859 H   0  0  0  0  0  0  0  0  0  0  0  0
   -8.2089   -2.3422   -0.8857 H   0  0  0  0  0  0  0  0  0  0  0  0
   -6.6033    1.5053    0.3186 H   0  0  0  0  0  0  0  0  0  0  0  0
  -10.4179   -1.3320   -1.0780 H   0  0  0  0  0  0  0  0  0  0  0  0
   -8.7554    2.4855    0.1302 H   0  0  0  0  0  0  0  0  0  0  0  0
  1 19  1  0  0  0  0
  1 27  1  0  0  0  0
  2 20  1  0  0  0  0
  2 28  1  0  0  0  0
  3 29  2  0  0  0  0
  4  9  1  0  0  0  0
  5  9  2  0  0  0  0
  6 10  1  0  0  0  0
  6 11  1  0  0  0  0
  6 15  1  0  0  0  0
  7 26  1  0  0  0  0
  7 29  1  0  0  0  0
  7 58  1  0  0  0  0
  8 29  1  0  0  0  0
  8 30  1  0  0  0  0
  8 59  1  0  0  0  0
  9 35  1  0  0  0  0
 10 12  1  0  0  0  0
 10 36  1  0  0  0  0
 10 37  1  0  0  0  0
 11 13  1  0  0  0  0
 11 38  1  0  0  0  0
 11 39  1  0  0  0  0
 12 14  1  0  0  0  0
 12 40  1  0  0  0  0
 12 41  1  0  0  0  0
 13 14  1  0  0  0  0
 13 17  2  0  0  0  0
 14 18  2  0  0  0  0
 15 16  1  0  0  0  0
 15 42  1  0  0  0  0
 15 43  1  0  0  0  0
 16 21  1  0  0  0  0
 16 44  1  0  0  0  0
 16 45  1  0  0  0  0
 17 19  1  0  0  0  0
 17 46  1  0  0  0  0
 18 20  1  0  0  0  0
 18 47  1  0  0  0  0
 19 20  2  0  0  0  0
 21 22  2  0  0  0  0
 21 23  1  0  0  0  0
 22 24  1  0  0  0  0
 22 48  1  0  0  0  0
 23 25  2  0  0  0  0
 23 49  1  0  0  0  0
 24 26  2  0  0  0  0
 24 50  1  0  0  0  0
 25 26  1  0  0  0  0
 25 51  1  0  0  0  0
 27 52  1  0  0  0  0
 27 53  1  0  0  0  0
 27 54  1  0  0  0  0
 28 55  1  0  0  0  0
 28 56  1  0  0  0  0
 28 57  1  0  0  0  0
 30 31  2  0  0  0  0
 30 32  1  0  0  0  0
 31 33  1  0  0  0  0
 31 60  1  0  0  0  0
 32 34  2  0  0  0  0
 32 61  1  0  0  0  0
 33 35  2  0  0  0  0
 33 62  1  0  0  0  0
 34 35  1  0  0  0  0
 34 63  1  0  0  0  0
M  CHG  2   4  -1   9   1
M  END
> <PUBCHEM_COMPOUND_CID>
44565480

> <PUBCHEM_CONFORMER_RMSD>
1

> <PUBCHEM_CONFORMER_DIVERSEORDER>
1
146
71
101
125
139
43
37
127
108
44
49
113
128
162
7
76
64
104
137
48
85
140
110
103
56
77
155
50
130
61
14
112
145
105
63
55
12
88
60
2
69
161
117
124
73
36
109
163
28
98
149
62
45
144
68
38
154
157
147
78
40
15
106
27
20
118
82
102
91
51
107
151
123
59
95
72
159
30
160
136
93
81
150
34
97
126
84
29
90
10
67
141
58
65
135
31
66
114
46
152
92
142
39
116
121
75
153
120
57
83
122
86
129
79
5
96
134
138
11
35
70
26
54
111
80
32
156
132
131
16
115
24
74
119
100
53
6
33
133
89
42
3
143
87
47
99
158
23
41
18
52
25
94
148
21
13
22
17
4
9
19
8

> <PUBCHEM_MMFF94_PARTIAL_CHARGES>
47
1 -0.36
10 0.27
11 0.41
12 0.14
13 -0.14
14 -0.14
15 0.27
16 0.14
17 -0.15
18 -0.15
19 0.08
2 -0.36
20 0.08
21 -0.14
22 -0.15
23 -0.15
24 -0.15
25 -0.15
26 0.12
27 0.28
28 0.28
29 0.69
3 -0.57
30 0.12
31 -0.15
32 -0.15
33 -0.15
34 -0.15
35 0.13
4 -0.52
46 0.15
47 0.15
48 0.15
49 0.15
5 -0.52
50 0.15
51 0.15
58 0.37
59 0.37
6 -0.81
60 0.15
61 0.15
62 0.15
63 0.15
7 -0.55
8 -0.55
9 0.91

> <PUBCHEM_EFFECTIVE_ROTOR_COUNT>
10.8

> <PUBCHEM_PHARMACOPHORE_FEATURES>
13
1 1 acceptor
1 2 acceptor
1 3 acceptor
1 4 acceptor
1 4 anion
1 5 acceptor
1 6 cation
1 7 donor
1 8 donor
6 13 14 17 18 19 20 rings
6 21 22 23 24 25 26 rings
6 30 31 32 33 34 35 rings
6 6 10 11 12 13 14 rings

> <PUBCHEM_HEAVY_ATOM_COUNT>
35

> <PUBCHEM_ATOM_DEF_STEREO_COUNT>
0

> <PUBCHEM_ATOM_UDEF_STEREO_COUNT>
0

> <PUBCHEM_BOND_DEF_STEREO_COUNT>
0

> <PUBCHEM_BOND_UDEF_STEREO_COUNT>
0

> <PUBCHEM_ISOTOPIC_ATOM_COUNT>
0

> <PUBCHEM_COMPONENT_COUNT>
1

> <PUBCHEM_CACTVS_TAUTO_COUNT>
3

> <PUBCHEM_CONFORMER_ID>
02A803E800000001

> <PUBCHEM_MMFF94_ENERGY>
126.3024

> <PUBCHEM_FEATURE_SELFOVERLAP>
66.128

> <PUBCHEM_SHAPE_FINGERPRINT>
10 15 14996280319277012507
10162869 55 15698001851711934170
11061554 47 18335976519328194661
11409948 35 18261387790606823218
11409948 41 16415208819718170022
11534866 41 10159705686168959068
11966995 16 18130517358174157326
12089408 11 16588305029441158386
12522641 33 18131914845299663831
12664476 115 18260544528362244148
13740195 50 12684808922804211791
14117953 113 18412267255187424476
14150022 121 13984929707281099983
14251764 46 18335417984610839306
14344974 52 18271522091820256627
14428016 248 17167864166777535165
150020 25 18060420239468513643
15061470 23 18335698364888178824
15065858 18 17561080332222325259
15145343 6 17313393369461608337
15198563 99 18131078095070239593
15247644 1 13901906722344221565
15510794 2 17917993914222323374
155225 1 17967532368252493605
15706992 2 16081095869855920215
15773216 30 18268993098485871598
16728433 110 14979950385397594554
16992610 120 18259990378944615687
1754911 235 18273492382418753565
19315958 150 14634865331972134368
19841028 212 10663561295352840709
20105231 36 16128371623973487775
20501277 279 12324238360498270481
21102433 48 12607404377798222885
21895431 317 15841003157373697910
232437 2 10807935972509217601
23399689 5 17967534570975105245
23524908 199 17989209222809233150
23576562 1 18198614635597614781
24771293 8 17894628137756234199
3092352 35 17095239246019800811
3991529 128 16877667863492488085
4017518 198 16917066677496071447
42767 2 16845575305622404433
4339292 15 13110963115944959459
4874694 18 17489307504214385342
5028188 123 18272646875405095159
54039377 194 12319735873995163755
5719381 82 11671778282979054741
57828716 72 17489581304237317760
58083652 198 16056601014632813818
5937810 71 17988647342856855785
59521099 67 15913322529335995040
59584819 99 15792023302136038124
59682541 35 11530481133913660283
6081469 158 17632297882808797016
6673363 416 18342454834710014769
9663363 56 17775564252830426048
9953998 17 12829491471543213219
9962374 69 11095874973758449050

> <PUBCHEM_SHAPE_MULTIPOLES>
671.01
50.47
1.63
1.59
41.66
0.05
-0.93
-17.67
-25.15
2.67
0.25
-4.68
0.11
2.44

> <PUBCHEM_SHAPE_SELFOVERLAP>
1441.063

> <PUBCHEM_SHAPE_VOLUME>
370.3

> <PUBCHEM_COORDINATE_TYPE>
2
5
10

$$$$