44565509
  -OEChem-03242010103D

 63 66  0     1  0  0  0  0  0999 V2000
    8.8569    2.1053    0.2612 O   0  0  0  0  0  0  0  0  0  0  0  0
    9.6590   -0.5239    0.6624 O   0  0  0  0  0  0  0  0  0  0  0  0
   -5.3000   -0.7600    0.6490 O   0  0  0  0  0  0  0  0  0  0  0  0
    3.3198   -0.4352   -0.3167 N   0  0  2  0  0  0  0  0  0  0  0  0
   -4.4301    0.4224   -1.1770 N   0  0  0  0  0  0  0  0  0  0  0  0
   -6.6742    0.6054   -0.6611 N   0  0  0  0  0  0  0  0  0  0  0  0
  -11.6906    0.0159    1.7914 N   0  0  0  0  0  0  0  0  0  0  0  0
    3.5790   -1.5489    0.6040 C   0  0  0  0  0  0  0  0  0  0  0  0
    4.1586    0.7236    0.0370 C   0  0  0  0  0  0  0  0  0  0  0  0
    5.0123   -2.0566    0.4167 C   0  0  0  0  0  0  0  0  0  0  0  0
    5.6246    0.3813    0.1744 C   0  0  0  0  0  0  0  0  0  0  0  0
    6.0294   -0.9454    0.4013 C   0  0  0  0  0  0  0  0  0  0  0  0
    1.9053   -0.0644   -0.2974 C   0  0  0  0  0  0  0  0  0  0  0  0
    1.0755   -1.0250   -1.1497 C   0  0  0  0  0  0  0  0  0  0  0  0
    6.5861    1.4003    0.1407 C   0  0  0  0  0  0  0  0  0  0  0  0
    7.3909   -1.2384    0.5536 C   0  0  0  0  0  0  0  0  0  0  0  0
    7.9385    1.0999    0.3032 C   0  0  0  0  0  0  0  0  0  0  0  0
    8.3405   -0.2182    0.5071 C   0  0  0  0  0  0  0  0  0  0  0  0
   -0.3827   -0.6407   -1.1563 C   0  0  0  0  0  0  0  0  0  0  0  0
   -1.2454   -1.1610   -0.1914 C   0  0  0  0  0  0  0  0  0  0  0  0
   -0.8690    0.2340   -2.1278 C   0  0  0  0  0  0  0  0  0  0  0  0
   -2.5944   -0.8067   -0.1983 C   0  0  0  0  0  0  0  0  0  0  0  0
   -2.2181    0.5883   -2.1348 C   0  0  0  0  0  0  0  0  0  0  0  0
   -3.0808    0.0679   -1.1700 C   0  0  0  0  0  0  0  0  0  0  0  0
    9.1772    2.7420    1.4967 C   0  0  0  0  0  0  0  0  0  0  0  0
   10.3966   -0.8298   -0.5195 C   0  0  0  0  0  0  0  0  0  0  0  0
   -5.4575    0.0082   -0.2946 C   0  0  0  0  0  0  0  0  0  0  0  0
   -7.9384    0.4565   -0.0433 C   0  0  0  0  0  0  0  0  0  0  0  0
   -9.0472    1.1334   -0.5515 C   0  0  0  0  0  0  0  0  0  0  0  0
   -8.0757   -0.3669    1.0741 C   0  0  0  0  0  0  0  0  0  0  0  0
  -10.2932    0.9868    0.0577 C   0  0  0  0  0  0  0  0  0  0  0  0
   -9.3218   -0.5134    1.6835 C   0  0  0  0  0  0  0  0  0  0  0  0
  -10.4307    0.1632    1.1753 C   0  0  0  0  0  0  0  0  0  0  0  0
    2.9067   -2.3942    0.4238 H   0  0  0  0  0  0  0  0  0  0  0  0
    3.4253   -1.2351    1.6458 H   0  0  0  0  0  0  0  0  0  0  0  0
    4.0556    1.4811   -0.7502 H   0  0  0  0  0  0  0  0  0  0  0  0
    3.8257    1.1690    0.9843 H   0  0  0  0  0  0  0  0  0  0  0  0
    5.2452   -2.7616    1.2237 H   0  0  0  0  0  0  0  0  0  0  0  0
    5.0865   -2.5995   -0.5343 H   0  0  0  0  0  0  0  0  0  0  0  0
    1.5187   -0.0066    0.7291 H   0  0  0  0  0  0  0  0  0  0  0  0
    1.7819    0.9406   -0.7245 H   0  0  0  0  0  0  0  0  0  0  0  0
    1.1586   -2.0585   -0.7941 H   0  0  0  0  0  0  0  0  0  0  0  0
    1.4519   -1.0367   -2.1814 H   0  0  0  0  0  0  0  0  0  0  0  0
    6.2779    2.4319   -0.0132 H   0  0  0  0  0  0  0  0  0  0  0  0
    7.7103   -2.2662    0.7096 H   0  0  0  0  0  0  0  0  0  0  0  0
   -0.8763   -1.8417    0.5713 H   0  0  0  0  0  0  0  0  0  0  0  0
   -0.2063    0.6471   -2.8836 H   0  0  0  0  0  0  0  0  0  0  0  0
   -3.1962   -1.2512    0.5814 H   0  0  0  0  0  0  0  0  0  0  0  0
   -2.5834    1.2712   -2.8976 H   0  0  0  0  0  0  0  0  0  0  0  0
    8.2888    3.2168    1.9249 H   0  0  0  0  0  0  0  0  0  0  0  0
    9.5962    2.0203    2.2050 H   0  0  0  0  0  0  0  0  0  0  0  0
    9.9261    3.5140    1.3001 H   0  0  0  0  0  0  0  0  0  0  0  0
    9.9796   -1.7129   -1.0138 H   0  0  0  0  0  0  0  0  0  0  0  0
   10.3942    0.0222   -1.2067 H   0  0  0  0  0  0  0  0  0  0  0  0
   11.4296   -1.0445   -0.2325 H   0  0  0  0  0  0  0  0  0  0  0  0
   -4.7095    1.0637   -1.9153 H   0  0  0  0  0  0  0  0  0  0  0  0
   -6.6547    1.2224   -1.4692 H   0  0  0  0  0  0  0  0  0  0  0  0
   -8.9537    1.7782   -1.4216 H   0  0  0  0  0  0  0  0  0  0  0  0
   -7.2677   -0.9231    1.5270 H   0  0  0  0  0  0  0  0  0  0  0  0
  -11.1497    1.5195   -0.3476 H   0  0  0  0  0  0  0  0  0  0  0  0
   -9.4174   -1.1576    2.5541 H   0  0  0  0  0  0  0  0  0  0  0  0
  -11.7915   -0.5820    2.6008 H   0  0  0  0  0  0  0  0  0  0  0  0
  -12.4950    0.5053    1.4223 H   0  0  0  0  0  0  0  0  0  0  0  0
  1 17  1  0  0  0  0
  1 25  1  0  0  0  0
  2 18  1  0  0  0  0
  2 26  1  0  0  0  0
  3 27  2  0  0  0  0
  4  8  1  0  0  0  0
  4  9  1  0  0  0  0
  4 13  1  0  0  0  0
  5 24  1  0  0  0  0
  5 27  1  0  0  0  0
  5 56  1  0  0  0  0
  6 27  1  0  0  0  0
  6 28  1  0  0  0  0
  6 57  1  0  0  0  0
  7 33  1  0  0  0  0
  7 62  1  0  0  0  0
  7 63  1  0  0  0  0
  8 10  1  0  0  0  0
  8 34  1  0  0  0  0
  8 35  1  0  0  0  0
  9 11  1  0  0  0  0
  9 36  1  0  0  0  0
  9 37  1  0  0  0  0
 10 12  1  0  0  0  0
 10 38  1  0  0  0  0
 10 39  1  0  0  0  0
 11 12  1  0  0  0  0
 11 15  2  0  0  0  0
 12 16  2  0  0  0  0
 13 14  1  0  0  0  0
 13 40  1  0  0  0  0
 13 41  1  0  0  0  0
 14 19  1  0  0  0  0
 14 42  1  0  0  0  0
 14 43  1  0  0  0  0
 15 17  1  0  0  0  0
 15 44  1  0  0  0  0
 16 18  1  0  0  0  0
 16 45  1  0  0  0  0
 17 18  2  0  0  0  0
 19 20  2  0  0  0  0
 19 21  1  0  0  0  0
 20 22  1  0  0  0  0
 20 46  1  0  0  0  0
 21 23  2  0  0  0  0
 21 47  1  0  0  0  0
 22 24  2  0  0  0  0
 22 48  1  0  0  0  0
 23 24  1  0  0  0  0
 23 49  1  0  0  0  0
 25 50  1  0  0  0  0
 25 51  1  0  0  0  0
 25 52  1  0  0  0  0
 26 53  1  0  0  0  0
 26 54  1  0  0  0  0
 26 55  1  0  0  0  0
 28 29  2  0  0  0  0
 28 30  1  0  0  0  0
 29 31  1  0  0  0  0
 29 58  1  0  0  0  0
 30 32  2  0  0  0  0
 30 59  1  0  0  0  0
 31 33  2  0  0  0  0
 31 60  1  0  0  0  0
 32 33  1  0  0  0  0
 32 61  1  0  0  0  0
M  END
> <PUBCHEM_COMPOUND_CID>
44565509

> <PUBCHEM_CONFORMER_RMSD>
1

> <PUBCHEM_CONFORMER_DIVERSEORDER>
1
106
155
145
75
80
117
81
128
161
18
74
159
105
143
46
189
114
97
50
135
90
182
124
45
167
28
157
186
34
100
171
8
122
60
73
141
2
56
53
187
127
158
70
66
121
134
42
26
30
169
185
51
149
162
41
151
7
59
118
65
136
174
153
109
86
40
144
183
19
133
165
47
32
123
43
138
160
184
163
126
176
61
83
110
112
96
115
49
52
178
111
177
64
25
152
48
188
67
108
116
44
140
68
103
139
132
21
33
88
125
173
113
13
180
166
55
72
150
39
36
14
82
99
20
104
101
137
119
92
71
175
147
87
131
154
62
120
190
23
94
130
102
84
98
3
142
156
12
89
146
35
168
6
85
91
15
148
38
181
5
179
95
79
129
78
31
77
54
164
17
107
37
76
172
93
58
69
29
170
57
9
24
63
22
10
16
4
27
11

> <PUBCHEM_MMFF94_PARTIAL_CHARGES>
47
1 -0.36
10 0.14
11 -0.14
12 -0.14
13 0.27
14 0.14
15 -0.15
16 -0.15
17 0.08
18 0.08
19 -0.14
2 -0.36
20 -0.15
21 -0.15
22 -0.15
23 -0.15
24 0.12
25 0.28
26 0.28
27 0.69
28 0.12
29 -0.15
3 -0.57
30 -0.15
31 -0.15
32 -0.15
33 0.1
4 -0.81
44 0.15
45 0.15
46 0.15
47 0.15
48 0.15
49 0.15
5 -0.55
56 0.37
57 0.37
58 0.15
59 0.15
6 -0.55
60 0.15
61 0.15
62 0.4
63 0.4
7 -0.9
8 0.27
9 0.41

> <PUBCHEM_EFFECTIVE_ROTOR_COUNT>
9.8

> <PUBCHEM_PHARMACOPHORE_FEATURES>
12
1 1 acceptor
1 2 acceptor
1 3 acceptor
1 4 cation
1 5 donor
1 6 donor
1 7 cation
1 7 donor
6 11 12 15 16 17 18 rings
6 19 20 21 22 23 24 rings
6 28 29 30 31 32 33 rings
6 4 8 9 10 11 12 rings

> <PUBCHEM_HEAVY_ATOM_COUNT>
33

> <PUBCHEM_ATOM_DEF_STEREO_COUNT>
0

> <PUBCHEM_ATOM_UDEF_STEREO_COUNT>
0

> <PUBCHEM_BOND_DEF_STEREO_COUNT>
0

> <PUBCHEM_BOND_UDEF_STEREO_COUNT>
0

> <PUBCHEM_ISOTOPIC_ATOM_COUNT>
0

> <PUBCHEM_COMPONENT_COUNT>
1

> <PUBCHEM_CACTVS_TAUTO_COUNT>
3

> <PUBCHEM_CONFORMER_ID>
02A8040500000001

> <PUBCHEM_MMFF94_ENERGY>
127.0053

> <PUBCHEM_FEATURE_SELFOVERLAP>
60.971

> <PUBCHEM_SHAPE_FINGERPRINT>
10 15 18342458132590224879
10076449 9 12035447242634062031
10533779 47 18187370891842067947
106641 1 18040435490937386983
11061554 47 14476957861474226795
11409948 35 15482401842431798966
11534866 41 16443059483661832138
11672396 167 17023476361061090907
12089408 11 17774996907912430366
12498461 61 17458348568343516403
12522641 33 13614525151519759061
12539745 222 14490464276017246079
12664476 115 15195564585128116859
13150687 139 11815896768814951709
13553643 46 18059299765482817473
13740195 50 18260546728102612385
14117953 113 13830130611434523088
14150022 121 18334856061978418461
14251764 46 18410573976561529551
14344974 52 13182728256927251903
14359421 15 18055924200709604934
14428016 248 17489871544672203049
14617042 71 18341611572951265288
15061470 23 15123504800825809258
15065858 18 17022897943948779879
15247644 1 13551191082683975609
15510794 2 17676207944383495387
155225 1 16343706517817327769
15690457 1 14201114609137788709
15706992 2 18201444700406034037
15840311 113 18412825811943313524
16992610 120 15626225736502884621
1754911 235 12679459773439914361
1818759 1 14562531773790646441
18335252 98 17530682082920805610
19315958 150 18412829062347924279
19841028 212 15936960826436107539
20105231 36 17240482473386718666
20501277 180 17202473576359905936
21095123 293 17418376891708014577
21102433 48 14345792764853728153
212700 22 16008753516087976619
21362267 2 18340751720119278648
21792934 111 17458344139556754157
21895431 317 14273727452221557289
22149856 69 18260831531947905466
232437 2 15864072065689321395
23524908 199 11671789256146073780
23576562 1 13325984735375648881
3092352 35 17418088824236014639
3711267 37 17989495129675800553
3991529 128 17632864144055292625
4339292 15 14490189428254349551
54039377 194 14345796055004248463
57303763 39 17168719638306043594
57828716 8 12179838417093152624
59521099 67 10809353239062579510
59682541 35 17822009813555951867
6126387 218 17822010888110282629
67123 10 16660365869999374279
9663363 56 11167938053530085526
9953998 17 18261109699520437695
9962374 69 15864076506817666927

> <PUBCHEM_SHAPE_MULTIPOLES>
641.59
46.13
1.63
1.48
41.01
0.61
0.3
13.53
-21.68
-4.83
-0.44
2.55
0.1
1.43

> <PUBCHEM_SHAPE_SELFOVERLAP>
1375.853

> <PUBCHEM_SHAPE_VOLUME>
354.7

> <PUBCHEM_COORDINATE_TYPE>
2
5
10

$$$$