56946726
  -OEChem-03242010103D

 50 52  0     0  0  0  0  0  0999 V2000
    4.6251   -2.4683    0.0120 O   0  0  0  0  0  0  0  0  0  0  0  0
    5.6778    2.2022    0.1216 O   0  0  0  0  0  0  0  0  0  0  0  0
    6.4985   -0.4413    0.2300 O   0  0  0  0  0  0  0  0  0  0  0  0
    0.7563    1.8842   -0.9420 O   0  0  0  0  0  0  0  0  0  0  0  0
    0.1426   -0.1586    0.0462 N   0  0  0  0  0  0  0  0  0  0  0  0
   -1.3879   -2.2784    1.1600 N   0  0  0  0  0  0  0  0  0  0  0  0
   -1.2544   -0.1106    0.0408 C   0  0  0  0  0  0  0  0  0  0  0  0
   -4.0404    0.0295    0.0082 C   0  0  0  0  0  0  0  0  0  0  0  0
   -2.0114   -1.1477    0.5859 C   0  0  0  0  0  0  0  0  0  0  0  0
    2.4773    0.4773   -0.2561 C   0  0  0  0  0  0  0  0  0  0  0  0
   -3.4043   -1.0776    0.5696 C   0  0  0  0  0  0  0  0  0  0  0  0
   -5.4852    0.1025   -0.0095 C   0  0  0  0  0  0  0  0  0  0  0  0
   -1.8904    0.9967   -0.5206 C   0  0  0  0  0  0  0  0  0  0  0  0
   -3.2834    1.0667   -0.5369 C   0  0  0  0  0  0  0  0  0  0  0  0
    1.0380    0.8068   -0.4285 C   0  0  0  0  0  0  0  0  0  0  0  0
    3.4184    1.5012   -0.1469 C   0  0  0  0  0  0  0  0  0  0  0  0
    2.8870   -0.8549   -0.2022 C   0  0  0  0  0  0  0  0  0  0  0  0
    4.2377   -1.1632   -0.0392 C   0  0  0  0  0  0  0  0  0  0  0  0
    4.7688    1.1929    0.0161 C   0  0  0  0  0  0  0  0  0  0  0  0
    5.1785   -0.1392    0.0700 C   0  0  0  0  0  0  0  0  0  0  0  0
   -6.1667    0.6913    1.0556 C   0  0  0  0  0  0  0  0  0  0  0  0
   -6.1968   -0.4157   -1.0914 C   0  0  0  0  0  0  0  0  0  0  0  0
   -7.5598    0.7619    1.0388 C   0  0  0  0  0  0  0  0  0  0  0  0
   -7.5896   -0.3453   -1.1084 C   0  0  0  0  0  0  0  0  0  0  0  0
   -8.2712    0.2436   -0.0432 C   0  0  0  0  0  0  0  0  0  0  0  0
    3.6004   -3.4533   -0.1074 C   0  0  0  0  0  0  0  0  0  0  0  0
    5.9587    2.6866    1.4334 C   0  0  0  0  0  0  0  0  0  0  0  0
    7.2763   -0.5894   -0.9557 C   0  0  0  0  0  0  0  0  0  0  0  0
   -3.9924   -1.8884    0.9957 H   0  0  0  0  0  0  0  0  0  0  0  0
   -1.3842    1.8387   -0.9690 H   0  0  0  0  0  0  0  0  0  0  0  0
   -3.7649    1.9358   -0.9796 H   0  0  0  0  0  0  0  0  0  0  0  0
    0.5317   -0.9694    0.5114 H   0  0  0  0  0  0  0  0  0  0  0  0
    3.1125    2.5441   -0.1827 H   0  0  0  0  0  0  0  0  0  0  0  0
    2.1449   -1.6297   -0.3435 H   0  0  0  0  0  0  0  0  0  0  0  0
   -5.6276    1.1002    1.9069 H   0  0  0  0  0  0  0  0  0  0  0  0
   -5.6812   -0.8780   -1.9300 H   0  0  0  0  0  0  0  0  0  0  0  0
   -1.9625   -3.0169    1.5453 H   0  0  0  0  0  0  0  0  0  0  0  0
   -0.3853   -2.3889    1.1668 H   0  0  0  0  0  0  0  0  0  0  0  0
   -8.0905    1.2203    1.8681 H   0  0  0  0  0  0  0  0  0  0  0  0
   -8.1438   -0.7488   -1.9508 H   0  0  0  0  0  0  0  0  0  0  0  0
   -9.3558    0.2984   -0.0564 H   0  0  0  0  0  0  0  0  0  0  0  0
    2.8809   -3.3929    0.7164 H   0  0  0  0  0  0  0  0  0  0  0  0
    3.1183   -3.4175   -1.0903 H   0  0  0  0  0  0  0  0  0  0  0  0
    4.0861   -4.4318   -0.0304 H   0  0  0  0  0  0  0  0  0  0  0  0
    5.0546    3.1007    1.8909 H   0  0  0  0  0  0  0  0  0  0  0  0
    6.3652    1.8871    2.0608 H   0  0  0  0  0  0  0  0  0  0  0  0
    6.7053    3.4813    1.3525 H   0  0  0  0  0  0  0  0  0  0  0  0
    8.3025   -0.8293   -0.6643 H   0  0  0  0  0  0  0  0  0  0  0  0
    7.2850    0.3425   -1.5298 H   0  0  0  0  0  0  0  0  0  0  0  0
    6.8879   -1.4063   -1.5721 H   0  0  0  0  0  0  0  0  0  0  0  0
  1 18  1  0  0  0  0
  1 26  1  0  0  0  0
  2 19  1  0  0  0  0
  2 27  1  0  0  0  0
  3 20  1  0  0  0  0
  3 28  1  0  0  0  0
  4 15  2  0  0  0  0
  5  7  1  0  0  0  0
  5 15  1  0  0  0  0
  5 32  1  0  0  0  0
  6  9  1  0  0  0  0
  6 37  1  0  0  0  0
  6 38  1  0  0  0  0
  7  9  2  0  0  0  0
  7 13  1  0  0  0  0
  8 11  2  0  0  0  0
  8 12  1  0  0  0  0
  8 14  1  0  0  0  0
  9 11  1  0  0  0  0
 10 15  1  0  0  0  0
 10 16  2  0  0  0  0
 10 17  1  0  0  0  0
 11 29  1  0  0  0  0
 12 21  2  0  0  0  0
 12 22  1  0  0  0  0
 13 14  2  0  0  0  0
 13 30  1  0  0  0  0
 14 31  1  0  0  0  0
 16 19  1  0  0  0  0
 16 33  1  0  0  0  0
 17 18  2  0  0  0  0
 17 34  1  0  0  0  0
 18 20  1  0  0  0  0
 19 20  2  0  0  0  0
 21 23  1  0  0  0  0
 21 35  1  0  0  0  0
 22 24  2  0  0  0  0
 22 36  1  0  0  0  0
 23 25  2  0  0  0  0
 23 39  1  0  0  0  0
 24 25  1  0  0  0  0
 24 40  1  0  0  0  0
 25 41  1  0  0  0  0
 26 42  1  0  0  0  0
 26 43  1  0  0  0  0
 26 44  1  0  0  0  0
 27 45  1  0  0  0  0
 27 46  1  0  0  0  0
 27 47  1  0  0  0  0
 28 48  1  0  0  0  0
 28 49  1  0  0  0  0
 28 50  1  0  0  0  0
M  END
> <PUBCHEM_COMPOUND_CID>
56946726

> <PUBCHEM_CONFORMER_RMSD>
0.8

> <PUBCHEM_CONFORMER_DIVERSEORDER>
1
10
5
12
15
16
6
13
14
9
17
18
19
8
7
2
11
4
3

> <PUBCHEM_MMFF94_PARTIAL_CHARGES>
39
1 -0.36
10 0.09
11 -0.15
13 -0.15
14 -0.15
15 0.54
16 -0.15
17 -0.15
18 0.08
19 0.08
2 -0.36
20 0.08
21 -0.15
22 -0.15
23 -0.15
24 -0.15
25 -0.15
26 0.28
27 0.28
28 0.28
29 0.15
3 -0.36
30 0.15
31 0.15
32 0.37
33 0.15
34 0.15
35 0.15
36 0.15
37 0.4
38 0.4
39 0.15
4 -0.57
40 0.15
41 0.15
5 -0.55
6 -0.9
7 0.12
9 0.1

> <PUBCHEM_EFFECTIVE_ROTOR_COUNT>
7

> <PUBCHEM_PHARMACOPHORE_FEATURES>
10
1 1 acceptor
1 2 acceptor
1 3 acceptor
1 4 acceptor
1 5 donor
1 6 cation
1 6 donor
6 10 16 17 18 19 20 rings
6 12 21 22 23 24 25 rings
6 7 8 9 11 13 14 rings

> <PUBCHEM_HEAVY_ATOM_COUNT>
28

> <PUBCHEM_ATOM_DEF_STEREO_COUNT>
0

> <PUBCHEM_ATOM_UDEF_STEREO_COUNT>
0

> <PUBCHEM_BOND_DEF_STEREO_COUNT>
0

> <PUBCHEM_BOND_UDEF_STEREO_COUNT>
0

> <PUBCHEM_ISOTOPIC_ATOM_COUNT>
0

> <PUBCHEM_COMPONENT_COUNT>
1

> <PUBCHEM_CACTVS_TAUTO_COUNT>
2

> <PUBCHEM_CONFORMER_ID>
0364F02600000001

> <PUBCHEM_MMFF94_ENERGY>
135.7896

> <PUBCHEM_FEATURE_SELFOVERLAP>
50.758

> <PUBCHEM_SHAPE_FINGERPRINT>
10 15 17386002918378819276
10299344 5 18060137635447848751
10411042 1 18051695439769527406
10595046 47 18202001023646819697
10835480 77 18338515364796129560
11181472 205 17631465483797786529
11315181 36 17989205976430934081
12236239 1 17846780719523786013
12516196 113 18272930522527637185
12838862 33 18187351147745279066
13533116 47 18342457010891636506
1361 2 18341332193280558167
13617811 41 17313110730516430567
13685833 64 18260269620358393175
13835254 42 18339360760500406524
14170010 4 18333449858760554324
14251764 18 18411140212170194063
14251764 46 17561365080290994420
14617045 38 18334582321957641366
14849402 71 18130789018686983249
15131766 46 16627972200773866816
15183329 4 18408603652151946435
15361156 5 17823146764065669711
15419008 47 17313097553979500533
1577012 14 18130790053979056113
15849732 13 16588027918013959951
16120349 18 18341889727269156361
20157964 124 18412262839612864886
21130935 74 18412547604956907451
21267235 1 18259991452559429956
21781051 124 17024054647619890203
21859007 373 17096346415727188093
23081809 10 17989486312676691941
23516275 137 17702405999660732159
23522609 53 17987258727799906353
23536379 177 17917712388396523451
23559900 14 18336545035706392056
23569943 247 18119246165203707539
255183 451 17985839121202870198
3004659 81 17530966903919672316
335352 9 18187367649046501935
3383291 50 17676493869589520267
34797466 226 17775570849098787468
3545911 37 18333733515944212828
3633792 109 18412263904896480401
3663271 9 18131072628224652305
4073 2 18262802989722914155
4093350 32 17846783983688537526
5104073 3 18262795155823950728
59755656 215 17603582994177621907
6081469 158 17676768683051232134

> <PUBCHEM_SHAPE_MULTIPOLES>
542.79
23.47
2.37
1.01
17.78
0.96
0.07
-2.97
-0.05
-5.13
0.49
0.64
-0.14
0.6

> <PUBCHEM_SHAPE_SELFOVERLAP>
1177.554

> <PUBCHEM_SHAPE_VOLUME>
297.3

> <PUBCHEM_COORDINATE_TYPE>
2
5
10

$$$$