56945301
  -OEChem-03242010103D

 46 48  0     0  0  0  0  0  0999 V2000
   -2.4389   -2.3117    0.0279 O   0  0  0  0  0  0  0  0  0  0  0  0
   -6.0191    2.2571   -1.0315 O   0  0  0  0  0  0  0  0  0  0  0  0
   -7.2733   -1.7097    1.3416 O   0  0  0  0  0  0  0  0  0  0  0  0
   -7.9618    0.7242    0.2129 O   0  0  0  0  0  0  0  0  0  0  0  0
   -0.2025    2.7241   -1.3105 O   0  5  0  0  0  0  0  0  0  0  0  0
   -0.1224    2.7652    0.8829 O   0  0  0  0  0  0  0  0  0  0  0  0
    8.1545    0.6594    1.2689 O   0  0  0  0  0  0  0  0  0  0  0  0
   -1.6590   -0.0983   -0.1065 N   0  0  0  0  0  0  0  0  0  0  0  0
    0.0581    2.1821   -0.2114 N   0  3  0  0  0  0  0  0  0  0  0  0
    2.4951   -0.6127   -0.2469 C   0  0  0  0  0  0  0  0  0  0  0  0
    3.9288   -0.8017   -0.2950 C   0  0  0  0  0  0  0  0  0  0  0  0
   -0.2695   -0.2504   -0.1539 C   0  0  0  0  0  0  0  0  0  0  0  0
    0.5776    0.8566   -0.2055 C   0  0  0  0  0  0  0  0  0  0  0  0
    1.9600    0.6756   -0.2520 C   0  0  0  0  0  0  0  0  0  0  0  0
    1.6480   -1.7197   -0.1957 C   0  0  0  0  0  0  0  0  0  0  0  0
    0.2657   -1.5386   -0.1490 C   0  0  0  0  0  0  0  0  0  0  0  0
    4.7780    0.1561    0.2595 C   0  0  0  0  0  0  0  0  0  0  0  0
    4.4619   -1.9413   -0.8976 C   0  0  0  0  0  0  0  0  0  0  0  0
    6.1601   -0.0258    0.2119 C   0  0  0  0  0  0  0  0  0  0  0  0
   -4.0358   -0.6202    0.0406 C   0  0  0  0  0  0  0  0  0  0  0  0
   -2.6308   -1.1014   -0.0214 C   0  0  0  0  0  0  0  0  0  0  0  0
    5.8440   -2.1230   -0.9455 C   0  0  0  0  0  0  0  0  0  0  0  0
    6.6933   -1.1655   -0.3906 C   0  0  0  0  0  0  0  0  0  0  0  0
   -5.0114   -1.3948    0.6683 C   0  0  0  0  0  0  0  0  0  0  0  0
   -4.3788    0.6062   -0.5290 C   0  0  0  0  0  0  0  0  0  0  0  0
    7.0460    0.9719    0.7905 C   0  0  0  0  0  0  0  0  0  0  0  0
   -5.6973    1.0576   -0.4710 C   0  0  0  0  0  0  0  0  0  0  0  0
   -6.3300   -0.9434    0.7259 C   0  0  0  0  0  0  0  0  0  0  0  0
   -6.6730    0.2830    0.1564 C   0  0  0  0  0  0  0  0  0  0  0  0
    6.6322    2.4393    0.8256 C   0  0  0  0  0  0  0  0  0  0  0  0
    2.5921    1.5579   -0.3243 H   0  0  0  0  0  0  0  0  0  0  0  0
    2.0209   -2.7397   -0.1597 H   0  0  0  0  0  0  0  0  0  0  0  0
   -0.3132   -2.4493   -0.1098 H   0  0  0  0  0  0  0  0  0  0  0  0
    4.3801    1.0256    0.7756 H   0  0  0  0  0  0  0  0  0  0  0  0
    3.8423   -2.6983   -1.3704 H   0  0  0  0  0  0  0  0  0  0  0  0
   -1.9742    0.8658   -0.0769 H   0  0  0  0  0  0  0  0  0  0  0  0
    6.2599   -3.0062   -1.4218 H   0  0  0  0  0  0  0  0  0  0  0  0
    7.7677   -1.3219   -0.4422 H   0  0  0  0  0  0  0  0  0  0  0  0
   -4.7501   -2.3492    1.1192 H   0  0  0  0  0  0  0  0  0  0  0  0
   -3.6519    1.2145   -1.0596 H   0  0  0  0  0  0  0  0  0  0  0  0
    7.5292    3.0639    0.7755 H   0  0  0  0  0  0  0  0  0  0  0  0
    6.0101    2.6888   -0.0381 H   0  0  0  0  0  0  0  0  0  0  0  0
    6.0945    2.6456    1.7542 H   0  0  0  0  0  0  0  0  0  0  0  0
   -5.2192    2.6543   -1.4165 H   0  0  0  0  0  0  0  0  0  0  0  0
   -6.8548   -2.5217    1.6753 H   0  0  0  0  0  0  0  0  0  0  0  0
   -8.4938    0.0588    0.6831 H   0  0  0  0  0  0  0  0  0  0  0  0
  1 21  2  0  0  0  0
  2 27  1  0  0  0  0
  2 44  1  0  0  0  0
  3 28  1  0  0  0  0
  3 45  1  0  0  0  0
  4 29  1  0  0  0  0
  4 46  1  0  0  0  0
  5  9  1  0  0  0  0
  6  9  2  0  0  0  0
  7 26  2  0  0  0  0
  8 12  1  0  0  0  0
  8 21  1  0  0  0  0
  8 36  1  0  0  0  0
  9 13  1  0  0  0  0
 10 11  1  0  0  0  0
 10 14  2  0  0  0  0
 10 15  1  0  0  0  0
 11 17  2  0  0  0  0
 11 18  1  0  0  0  0
 12 13  2  0  0  0  0
 12 16  1  0  0  0  0
 13 14  1  0  0  0  0
 14 31  1  0  0  0  0
 15 16  2  0  0  0  0
 15 32  1  0  0  0  0
 16 33  1  0  0  0  0
 17 19  1  0  0  0  0
 17 34  1  0  0  0  0
 18 22  2  0  0  0  0
 18 35  1  0  0  0  0
 19 23  2  0  0  0  0
 19 26  1  0  0  0  0
 20 21  1  0  0  0  0
 20 24  2  0  0  0  0
 20 25  1  0  0  0  0
 22 23  1  0  0  0  0
 22 37  1  0  0  0  0
 23 38  1  0  0  0  0
 24 28  1  0  0  0  0
 24 39  1  0  0  0  0
 25 27  2  0  0  0  0
 25 40  1  0  0  0  0
 26 30  1  0  0  0  0
 27 29  1  0  0  0  0
 28 29  2  0  0  0  0
 30 41  1  0  0  0  0
 30 42  1  0  0  0  0
 30 43  1  0  0  0  0
M  CHG  2   5  -1   9   1
M  END
> <PUBCHEM_COMPOUND_CID>
56945301

> <PUBCHEM_CONFORMER_RMSD>
0.8

> <PUBCHEM_CONFORMER_DIVERSEORDER>
1
12
7
24
22
4
30
8
16
15
25
9
19
6
2
20
29
26
28
18
11
10
3
21
5
23
14
13
27
17

> <PUBCHEM_MMFF94_PARTIAL_CHARGES>
41
1 -0.57
12 0.12
13 0.13
14 -0.15
15 -0.15
16 -0.15
17 -0.15
18 -0.15
19 0.09
2 -0.53
20 0.09
21 0.54
22 -0.15
23 -0.15
24 -0.15
25 -0.15
26 0.42
27 0.08
28 0.08
29 0.08
3 -0.53
30 0.06
31 0.15
32 0.15
33 0.15
34 0.15
35 0.15
36 0.37
37 0.15
38 0.15
39 0.15
4 -0.53
40 0.15
44 0.45
45 0.45
46 0.45
5 -0.52
6 -0.52
7 -0.57
8 -0.55
9 0.91

> <PUBCHEM_EFFECTIVE_ROTOR_COUNT>
6

> <PUBCHEM_PHARMACOPHORE_FEATURES>
12
1 1 acceptor
1 2 donor
1 3 donor
1 4 donor
1 5 acceptor
1 5 anion
1 6 acceptor
1 7 acceptor
1 8 donor
6 10 12 13 14 15 16 rings
6 11 17 18 19 22 23 rings
6 20 24 25 27 28 29 rings

> <PUBCHEM_HEAVY_ATOM_COUNT>
30

> <PUBCHEM_ATOM_DEF_STEREO_COUNT>
0

> <PUBCHEM_ATOM_UDEF_STEREO_COUNT>
0

> <PUBCHEM_BOND_DEF_STEREO_COUNT>
0

> <PUBCHEM_BOND_UDEF_STEREO_COUNT>
0

> <PUBCHEM_ISOTOPIC_ATOM_COUNT>
0

> <PUBCHEM_COMPONENT_COUNT>
1

> <PUBCHEM_CACTVS_TAUTO_COUNT>
50

> <PUBCHEM_CONFORMER_ID>
0364EA9500000001

> <PUBCHEM_MMFF94_ENERGY>
107.6071

> <PUBCHEM_FEATURE_SELFOVERLAP>
60.988

> <PUBCHEM_SHAPE_FINGERPRINT>
10 15 18334293197438104002
10299344 5 14634871950485088083
10835480 77 18342453733973968776
11315181 36 16702302369735048443
11646440 116 18342185466137809835
12107698 1 15357700786116415943
125118 31 18408887330594930268
12516196 113 18342459239816054691
12838862 33 18337093614941437773
13383665 225 18263384542240108572
13685833 64 18409736161792177763
14028597 1 17168133503966061024
14251764 18 18335702775407920863
14849402 71 17916588772785217849
14856354 85 16008756818506668683
14933364 13 18411139125559565342
15131766 46 15193564668789432162
15183329 4 13984663646540593458
15419008 91 18261379049198272052
15461852 350 16630521848284406253
15849732 13 18343585140166275815
16120349 18 18201996663780371113
17980427 23 17131567080300064505
18608769 82 18335142025227036403
19315958 150 18202567294011114862
19841028 212 17314221173786333634
20157964 124 18131634478919952046
20238998 120 18410857663763948164
21130935 74 18410579452993933915
21150785 3 12823293524956427578
21236236 1 18129383704944152041
21267235 1 18409457972444330119
21315759 40 15357698604262368875
21521721 280 18131351916820662890
21792934 111 18340761568857804064
22149856 69 18341347607848767505
23559900 14 18130780200527527089
23576562 1 12966263055774810834
24771293 8 18268140041409024044
3004659 81 18040160612830197494
335352 9 18409732863737141431
3383291 50 18040722515028546123
34797466 226 17203618086200642100
4073 2 18334579096300435490
4093350 32 17131838664325450590
4169191 19 18202284718610186032
4340502 62 17022899052166822522
444735 82 18335986462947436476
5104073 3 18270396076255402018
59755656 215 18337113358685311686
6328613 192 18131070428557857545

> <PUBCHEM_SHAPE_MULTIPOLES>
566.34
23.43
2.58
0.96
4.33
1.01
-0.03
1.5
-5.16
-1.05
0.21
-0.07
0.14
2.96

> <PUBCHEM_SHAPE_SELFOVERLAP>
1245.774

> <PUBCHEM_SHAPE_VOLUME>
304.6

> <PUBCHEM_COORDINATE_TYPE>
2
5
10

$$$$