56945524
  -OEChem-03242010103D

 50 52  0     0  0  0  0  0  0999 V2000
    6.9278    1.3656    1.1263 O   0  0  0  0  0  0  0  0  0  0  0  0
    6.5265   -2.7543   -1.2825 O   0  0  0  0  0  0  0  0  0  0  0  0
    8.1116   -0.8362   -0.0664 O   0  0  0  0  0  0  0  0  0  0  0  0
   -7.2517   -1.6745    1.0116 O   0  0  0  0  0  0  0  0  0  0  0  0
   -2.3481   -2.1098   -0.0964 O   0  0  0  0  0  0  0  0  0  0  0  0
   -6.0107    2.3763   -1.2222 O   0  0  0  0  0  0  0  0  0  0  0  0
   -7.9607    0.7621   -0.0974 O   0  0  0  0  0  0  0  0  0  0  0  0
   -0.2041    3.0161   -1.2288 O   0  5  0  0  0  0  0  0  0  0  0  0
   -0.2225    3.0108    0.9663 O   0  0  0  0  0  0  0  0  0  0  0  0
   -1.6285    0.1273   -0.1501 N   0  0  0  0  0  0  0  0  0  0  0  0
    0.0234    2.4574   -0.1305 N   0  3  0  0  0  0  0  0  0  0  0  0
    2.5411   -0.2652   -0.1153 C   0  0  0  0  0  0  0  0  0  0  0  0
    3.9804   -0.4119   -0.1032 C   0  0  0  0  0  0  0  0  0  0  0  0
   -0.2344    0.0160   -0.1386 C   0  0  0  0  0  0  0  0  0  0  0  0
    0.5811    1.1475   -0.1290 C   0  0  0  0  0  0  0  0  0  0  0  0
    1.9688    1.0070   -0.1173 C   0  0  0  0  0  0  0  0  0  0  0  0
    1.7256   -1.3967   -0.1250 C   0  0  0  0  0  0  0  0  0  0  0  0
    0.3378   -1.2562   -0.1365 C   0  0  0  0  0  0  0  0  0  0  0  0
    4.7755    0.5559    0.5108 C   0  0  0  0  0  0  0  0  0  0  0  0
    4.5728   -1.5222   -0.7050 C   0  0  0  0  0  0  0  0  0  0  0  0
    6.1629    0.4132    0.5233 C   0  0  0  0  0  0  0  0  0  0  0  0
   -3.9932   -0.4652   -0.1197 C   0  0  0  0  0  0  0  0  0  0  0  0
    5.9603   -1.6649   -0.6924 C   0  0  0  0  0  0  0  0  0  0  0  0
   -2.5732   -0.9048   -0.1290 C   0  0  0  0  0  0  0  0  0  0  0  0
    6.7553   -0.6973   -0.0782 C   0  0  0  0  0  0  0  0  0  0  0  0
   -4.9723   -1.2806    0.4476 C   0  0  0  0  0  0  0  0  0  0  0  0
   -4.3464    0.7626   -0.6796 C   0  0  0  0  0  0  0  0  0  0  0  0
   -6.3048   -0.8683    0.4552 C   0  0  0  0  0  0  0  0  0  0  0  0
   -5.6789    1.1750   -0.6720 C   0  0  0  0  0  0  0  0  0  0  0  0
   -6.6580    0.3596   -0.1045 C   0  0  0  0  0  0  0  0  0  0  0  0
    6.2426    2.4685    1.7170 C   0  0  0  0  0  0  0  0  0  0  0  0
   -6.8062   -2.9128    1.5616 C   0  0  0  0  0  0  0  0  0  0  0  0
    2.5754    1.9094   -0.1464 H   0  0  0  0  0  0  0  0  0  0  0  0
    2.1259   -2.4064   -0.0926 H   0  0  0  0  0  0  0  0  0  0  0  0
   -0.2152   -2.1836   -0.1421 H   0  0  0  0  0  0  0  0  0  0  0  0
    4.2881    1.3852    1.0084 H   0  0  0  0  0  0  0  0  0  0  0  0
    3.9837   -2.2774   -1.2191 H   0  0  0  0  0  0  0  0  0  0  0  0
   -1.9730    1.0811   -0.1144 H   0  0  0  0  0  0  0  0  0  0  0  0
   -4.6457   -2.2218    0.8762 H   0  0  0  0  0  0  0  0  0  0  0  0
   -3.6149    1.4024   -1.1649 H   0  0  0  0  0  0  0  0  0  0  0  0
    5.8253   -3.3171   -1.6530 H   0  0  0  0  0  0  0  0  0  0  0  0
    8.3396   -1.6621   -0.5277 H   0  0  0  0  0  0  0  0  0  0  0  0
    7.0059    3.1313    2.1383 H   0  0  0  0  0  0  0  0  0  0  0  0
    5.6072    2.1502    2.5505 H   0  0  0  0  0  0  0  0  0  0  0  0
    5.6952    3.0536    0.9700 H   0  0  0  0  0  0  0  0  0  0  0  0
   -5.2067    2.8042   -1.5632 H   0  0  0  0  0  0  0  0  0  0  0  0
   -8.0150    1.6337   -0.5264 H   0  0  0  0  0  0  0  0  0  0  0  0
   -6.3802   -3.5668    0.7930 H   0  0  0  0  0  0  0  0  0  0  0  0
   -6.1246   -2.7585    2.4051 H   0  0  0  0  0  0  0  0  0  0  0  0
   -7.6894   -3.4245    1.9583 H   0  0  0  0  0  0  0  0  0  0  0  0
  1 21  1  0  0  0  0
  1 31  1  0  0  0  0
  2 23  1  0  0  0  0
  2 41  1  0  0  0  0
  3 25  1  0  0  0  0
  3 42  1  0  0  0  0
  4 28  1  0  0  0  0
  4 32  1  0  0  0  0
  5 24  2  0  0  0  0
  6 29  1  0  0  0  0
  6 46  1  0  0  0  0
  7 30  1  0  0  0  0
  7 47  1  0  0  0  0
  8 11  1  0  0  0  0
  9 11  2  0  0  0  0
 10 14  1  0  0  0  0
 10 24  1  0  0  0  0
 10 38  1  0  0  0  0
 11 15  1  0  0  0  0
 12 13  1  0  0  0  0
 12 16  2  0  0  0  0
 12 17  1  0  0  0  0
 13 19  1  0  0  0  0
 13 20  2  0  0  0  0
 14 15  2  0  0  0  0
 14 18  1  0  0  0  0
 15 16  1  0  0  0  0
 16 33  1  0  0  0  0
 17 18  2  0  0  0  0
 17 34  1  0  0  0  0
 18 35  1  0  0  0  0
 19 21  2  0  0  0  0
 19 36  1  0  0  0  0
 20 23  1  0  0  0  0
 20 37  1  0  0  0  0
 21 25  1  0  0  0  0
 22 24  1  0  0  0  0
 22 26  1  0  0  0  0
 22 27  2  0  0  0  0
 23 25  2  0  0  0  0
 26 28  2  0  0  0  0
 26 39  1  0  0  0  0
 27 29  1  0  0  0  0
 27 40  1  0  0  0  0
 28 30  1  0  0  0  0
 29 30  2  0  0  0  0
 31 43  1  0  0  0  0
 31 44  1  0  0  0  0
 31 45  1  0  0  0  0
 32 48  1  0  0  0  0
 32 49  1  0  0  0  0
 32 50  1  0  0  0  0
M  CHG  2   8  -1  11   1
M  END
> <PUBCHEM_COMPOUND_CID>
56945524

> <PUBCHEM_CONFORMER_RMSD>
1

> <PUBCHEM_CONFORMER_DIVERSEORDER>
3
25
12
16
22
8
17
15
9
24
2
10
14
18
4
5
23
19
21
11
13
6
7
20
1

> <PUBCHEM_MMFF94_PARTIAL_CHARGES>
42
1 -0.36
10 -0.55
11 0.91
14 0.12
15 0.13
16 -0.15
17 -0.15
18 -0.15
19 -0.15
2 -0.53
20 -0.15
21 0.08
22 0.09
23 0.08
24 0.54
25 0.08
26 -0.15
27 -0.15
28 0.08
29 0.08
3 -0.53
30 0.08
31 0.28
32 0.28
33 0.15
34 0.15
35 0.15
36 0.15
37 0.15
38 0.37
39 0.15
4 -0.36
40 0.15
41 0.45
42 0.45
46 0.45
47 0.45
5 -0.57
6 -0.53
7 -0.53
8 -0.52
9 -0.52

> <PUBCHEM_EFFECTIVE_ROTOR_COUNT>
7

> <PUBCHEM_PHARMACOPHORE_FEATURES>
14
1 1 acceptor
1 10 donor
1 2 donor
1 3 donor
1 4 acceptor
1 5 acceptor
1 6 donor
1 7 donor
1 8 acceptor
1 8 anion
1 9 acceptor
6 12 14 15 16 17 18 rings
6 13 19 20 21 23 25 rings
6 22 26 27 28 29 30 rings

> <PUBCHEM_HEAVY_ATOM_COUNT>
32

> <PUBCHEM_ATOM_DEF_STEREO_COUNT>
0

> <PUBCHEM_ATOM_UDEF_STEREO_COUNT>
0

> <PUBCHEM_BOND_DEF_STEREO_COUNT>
0

> <PUBCHEM_BOND_UDEF_STEREO_COUNT>
0

> <PUBCHEM_ISOTOPIC_ATOM_COUNT>
0

> <PUBCHEM_COMPONENT_COUNT>
1

> <PUBCHEM_CACTVS_TAUTO_COUNT>
612

> <PUBCHEM_CONFORMER_ID>
0364EB7400000003

> <PUBCHEM_MMFF94_ENERGY>
130.1019

> <PUBCHEM_FEATURE_SELFOVERLAP>
71.14

> <PUBCHEM_SHAPE_FINGERPRINT>
10 15 18337105760729233930
10299344 5 16805041813237287027
11646440 116 18271814540032246515
12107698 1 15357698586987600383
12166972 35 18040443212898500789
12516196 113 18342175574416631113
13383665 225 18262817207151659580
13685833 64 18410015450519706531
13811026 1 18410290319741426027
14294032 229 17242452699065309252
14849402 71 17630889493922910377
14856354 85 16081093684181913915
14933364 13 18410575076078666038
15131766 46 15049727661397577986
15183329 4 15574715802584357714
15419008 91 18262501667649919013
15510794 2 18410575084774452847
15849732 13 18343019995415877559
16087824 20 18192149301311702373
16120349 18 18060412547166138817
18608769 82 18334577975735574531
19315958 150 18130506423023507106
19841028 212 17823695271052455802
21130935 74 18343025492863889427
21236236 1 18129944464269171017
21267235 1 18409455786168683447
21315759 40 15719388460346200115
21521721 280 18060700615323856802
21792934 111 18342448232479825456
22149856 69 18340783575758831457
23081809 10 15357694171576297622
23559900 14 18129933576822215249
24771293 8 18196922487108158512
24771750 20 17902241340371119052
3004659 81 18040157314310956462
335352 9 18410292515050002511
3383291 50 18041845124906095939
397830 11 18338796839635397835
4073 2 18335702805942658242
59755656 215 18336266739206116030
6009941 240 18259984838895174661
6691757 9 15769495413639223791

> <PUBCHEM_SHAPE_MULTIPOLES>
595.76
24.31
2.88
1.07
3.43
0.84
-0.21
-5.8
-3.63
0.26
-0.18
-0.14
0.14
4.46

> <PUBCHEM_SHAPE_SELFOVERLAP>
1307.081

> <PUBCHEM_SHAPE_VOLUME>
321.9

> <PUBCHEM_COORDINATE_TYPE>
2
5
10

$$$$