56945525
  -OEChem-03242010103D

 44 46  0     0  0  0  0  0  0999 V2000
   -6.8523    1.9939   -0.2736 O   0  0  0  0  0  0  0  0  0  0  0  0
   -1.9646    1.4659    0.8589 O   0  0  0  0  0  0  0  0  0  0  0  0
   -6.0348   -2.7176   -0.0037 O   0  0  0  0  0  0  0  0  0  0  0  0
   -7.8037   -0.6074   -0.3031 O   0  0  0  0  0  0  0  0  0  0  0  0
    8.2857    1.6225   -0.1718 O   0  5  0  0  0  0  0  0  0  0  0  0
    6.4029    2.7418   -0.3174 O   0  0  0  0  0  0  0  0  0  0  0  0
   -1.4399   -0.6343   -0.0592 N   0  0  0  0  0  0  0  0  0  0  0  0
    7.0318    1.6633   -0.1932 N   0  3  0  0  0  0  0  0  0  0  0  0
    2.7440   -0.6969    0.0035 C   0  0  0  0  0  0  0  0  0  0  0  0
    4.1904   -0.7186    0.0251 C   0  0  0  0  0  0  0  0  0  0  0  0
   -0.0451   -0.6552   -0.0382 C   0  0  0  0  0  0  0  0  0  0  0  0
    2.0558    0.4179    0.4822 C   0  0  0  0  0  0  0  0  0  0  0  0
    2.0374   -1.7911   -0.4960 C   0  0  0  0  0  0  0  0  0  0  0  0
    0.6614    0.4389    0.4613 C   0  0  0  0  0  0  0  0  0  0  0  0
    0.6429   -1.7703   -0.5169 C   0  0  0  0  0  0  0  0  0  0  0  0
   -3.7459    0.1252    0.1951 C   0  0  0  0  0  0  0  0  0  0  0  0
    4.9074    0.4719   -0.0936 C   0  0  0  0  0  0  0  0  0  0  0  0
   -2.2940    0.3883    0.3749 C   0  0  0  0  0  0  0  0  0  0  0  0
    4.8678   -1.9301    0.1643 C   0  0  0  0  0  0  0  0  0  0  0  0
   -4.6336    1.1905    0.0434 C   0  0  0  0  0  0  0  0  0  0  0  0
    6.3019    0.4510   -0.0730 C   0  0  0  0  0  0  0  0  0  0  0  0
   -4.2211   -1.1860    0.1789 C   0  0  0  0  0  0  0  0  0  0  0  0
   -5.9963    0.9446   -0.1244 C   0  0  0  0  0  0  0  0  0  0  0  0
   -5.5839   -1.4322    0.0113 C   0  0  0  0  0  0  0  0  0  0  0  0
   -6.4714   -0.3668   -0.1407 C   0  0  0  0  0  0  0  0  0  0  0  0
    6.2623   -1.9508    0.1848 C   0  0  0  0  0  0  0  0  0  0  0  0
    6.9795   -0.7603    0.0660 C   0  0  0  0  0  0  0  0  0  0  0  0
   -6.2845    3.3021   -0.2451 C   0  0  0  0  0  0  0  0  0  0  0  0
    2.5619    1.2785    0.9112 H   0  0  0  0  0  0  0  0  0  0  0  0
    2.5301   -2.6678   -0.9073 H   0  0  0  0  0  0  0  0  0  0  0  0
    0.2016    1.3337    0.8563 H   0  0  0  0  0  0  0  0  0  0  0  0
    0.1052   -2.6272   -0.9149 H   0  0  0  0  0  0  0  0  0  0  0  0
   -1.8546   -1.4579   -0.4854 H   0  0  0  0  0  0  0  0  0  0  0  0
    4.3892    1.4163   -0.2379 H   0  0  0  0  0  0  0  0  0  0  0  0
    4.3524   -2.8781    0.2908 H   0  0  0  0  0  0  0  0  0  0  0  0
   -4.2138    2.1904    0.0552 H   0  0  0  0  0  0  0  0  0  0  0  0
   -3.5620   -2.0354    0.3336 H   0  0  0  0  0  0  0  0  0  0  0  0
    6.7899   -2.8932    0.3003 H   0  0  0  0  0  0  0  0  0  0  0  0
    8.0649   -0.8147    0.0877 H   0  0  0  0  0  0  0  0  0  0  0  0
   -5.2813   -3.3215    0.1115 H   0  0  0  0  0  0  0  0  0  0  0  0
   -7.9459   -1.5699   -0.2879 H   0  0  0  0  0  0  0  0  0  0  0  0
   -5.8261    3.5231    0.7249 H   0  0  0  0  0  0  0  0  0  0  0  0
   -5.5944    3.4614   -1.0807 H   0  0  0  0  0  0  0  0  0  0  0  0
   -7.1077    4.0125   -0.3751 H   0  0  0  0  0  0  0  0  0  0  0  0
  1 23  1  0  0  0  0
  1 28  1  0  0  0  0
  2 18  2  0  0  0  0
  3 24  1  0  0  0  0
  3 40  1  0  0  0  0
  4 25  1  0  0  0  0
  4 41  1  0  0  0  0
  5  8  1  0  0  0  0
  6  8  2  0  0  0  0
  7 11  1  0  0  0  0
  7 18  1  0  0  0  0
  7 33  1  0  0  0  0
  8 21  1  0  0  0  0
  9 10  1  0  0  0  0
  9 12  2  0  0  0  0
  9 13  1  0  0  0  0
 10 17  2  0  0  0  0
 10 19  1  0  0  0  0
 11 14  2  0  0  0  0
 11 15  1  0  0  0  0
 12 14  1  0  0  0  0
 12 29  1  0  0  0  0
 13 15  2  0  0  0  0
 13 30  1  0  0  0  0
 14 31  1  0  0  0  0
 15 32  1  0  0  0  0
 16 18  1  0  0  0  0
 16 20  1  0  0  0  0
 16 22  2  0  0  0  0
 17 21  1  0  0  0  0
 17 34  1  0  0  0  0
 19 26  2  0  0  0  0
 19 35  1  0  0  0  0
 20 23  2  0  0  0  0
 20 36  1  0  0  0  0
 21 27  2  0  0  0  0
 22 24  1  0  0  0  0
 22 37  1  0  0  0  0
 23 25  1  0  0  0  0
 24 25  2  0  0  0  0
 26 27  1  0  0  0  0
 26 38  1  0  0  0  0
 27 39  1  0  0  0  0
 28 42  1  0  0  0  0
 28 43  1  0  0  0  0
 28 44  1  0  0  0  0
M  CHG  2   5  -1   8   1
M  END
> <PUBCHEM_COMPOUND_CID>
56945525

> <PUBCHEM_CONFORMER_RMSD>
0.8

> <PUBCHEM_CONFORMER_DIVERSEORDER>
3
10
7
14
12
5
1
6
13
11
8
4
9
16
2
15

> <PUBCHEM_MMFF94_PARTIAL_CHARGES>
39
1 -0.36
11 0.12
12 -0.15
13 -0.15
14 -0.15
15 -0.15
16 0.09
17 -0.15
18 0.54
19 -0.15
2 -0.57
20 -0.15
21 0.13
22 -0.15
23 0.08
24 0.08
25 0.08
26 -0.15
27 -0.15
28 0.28
29 0.15
3 -0.53
30 0.15
31 0.15
32 0.15
33 0.37
34 0.15
35 0.15
36 0.15
37 0.15
38 0.15
39 0.15
4 -0.53
40 0.45
41 0.45
5 -0.52
6 -0.52
7 -0.55
8 0.91

> <PUBCHEM_EFFECTIVE_ROTOR_COUNT>
6

> <PUBCHEM_PHARMACOPHORE_FEATURES>
11
1 1 acceptor
1 2 acceptor
1 3 donor
1 4 donor
1 5 acceptor
1 5 anion
1 6 acceptor
1 7 donor
6 10 17 19 21 26 27 rings
6 16 20 22 23 24 25 rings
6 9 11 12 13 14 15 rings

> <PUBCHEM_HEAVY_ATOM_COUNT>
28

> <PUBCHEM_ATOM_DEF_STEREO_COUNT>
0

> <PUBCHEM_ATOM_UDEF_STEREO_COUNT>
0

> <PUBCHEM_BOND_DEF_STEREO_COUNT>
0

> <PUBCHEM_BOND_UDEF_STEREO_COUNT>
0

> <PUBCHEM_ISOTOPIC_ATOM_COUNT>
0

> <PUBCHEM_COMPONENT_COUNT>
1

> <PUBCHEM_CACTVS_TAUTO_COUNT>
22

> <PUBCHEM_CONFORMER_ID>
0364EB7500000003

> <PUBCHEM_MMFF94_ENERGY>
106.7932

> <PUBCHEM_FEATURE_SELFOVERLAP>
55.908

> <PUBCHEM_SHAPE_FINGERPRINT>
10 15 18187364350664534282
10299344 5 18273496775611446499
10411042 1 18122062268655514867
10595046 47 18411983529415566826
10673678 19 18270967950987457004
10835480 77 18409445860768372237
11315181 36 18343867719555827067
11524674 6 16200147712389705215
11719270 70 18131065987873650350
11991303 11 17060333071784102214
12082328 90 18411134732525251671
12166972 35 18334579052981237396
12236239 1 18408885127012748834
125118 31 18408886213903439664
13533116 47 17095797703933114306
13885169 127 18409165481224307467
14251732 16 18410012160843711626
14251757 52 18335417963658456672
14933364 13 18410293609691643008
15183329 4 18412263900211142682
1577012 14 18409448072380818630
15849732 13 18411983581034230980
16989713 51 17488733631921832111
17093844 174 17967253088283568265
17686467 74 18041841826634221677
18681886 176 18342170111344740587
20157964 124 18410295801090555434
20281389 69 18259703372033748820
21130935 74 18260548900734176674
21150785 3 18131634508303831728
21315763 28 18410009914248651250
21792934 111 18271513214407777368
22224240 67 17385722508754179098
23522609 53 17844272737769936512
23559900 14 18343292683285386369
24771293 8 17895196640759783508
335352 9 18343860031822855935
34797466 226 14620790518765147522
350125 39 18342455945692423656
397830 11 16589169288482835840
4073 2 18187369839258835683
4098825 35 18335699412496156745
4325135 7 18413108376681018422
4340502 62 17167859764879526066
444735 82 18260552255741827876
4625314 4 18411702050260297118
5758199 1 17748827414527369706
6328613 192 18411700980327948776
9831232 110 18129107715158124574
99344 41 18409165498425632946

> <PUBCHEM_SHAPE_MULTIPOLES>
531.05
25.41
2.64
0.67
2.94
1.06
0.02
7.56
-1.93
-0.99
-0.25
-0.01
0.01
-0.17

> <PUBCHEM_SHAPE_SELFOVERLAP>
1166.752

> <PUBCHEM_SHAPE_VOLUME>
286.4

> <PUBCHEM_COORDINATE_TYPE>
2
5
10

$$$$