441074
  -OEChem-03242010103D

 48 51  0     1  0  0  0  0  0999 V2000
   -0.6254    1.3884   -2.5290 O   0  0  0  0  0  0  0  0  0  0  0  0
    2.7574   -3.0505   -0.2877 O   0  0  0  0  0  0  0  0  0  0  0  0
   -1.6556    0.6475    0.9883 N   0  0  2  0  0  0  0  0  0  0  0  0
    3.0434    2.3993    0.5965 N   0  0  0  0  0  0  0  0  0  0  0  0
   -3.9643    0.0512   -0.0502 C   0  0  1  0  0  0  0  0  0  0  0  0
   -1.7374    1.1685   -0.4028 C   0  0  2  0  0  0  0  0  0  0  0  0
   -3.0331    0.6940   -1.0971 C   0  0  0  0  0  0  0  0  0  0  0  0
   -3.2792   -1.2118    0.5230 C   0  0  2  0  0  0  0  0  0  0  0  0
   -4.1160    1.0520    1.1104 C   0  0  0  0  0  0  0  0  0  0  0  0
   -1.8602   -0.8221    1.0016 C   0  0  0  0  0  0  0  0  0  0  0  0
   -2.7464    1.2717    1.7750 C   0  0  0  0  0  0  0  0  0  0  0  0
   -0.4936    0.8277   -1.2264 C   0  0  2  0  0  0  0  0  0  0  0  0
   -3.2463   -2.3507   -0.4511 C   0  0  0  0  0  0  0  0  0  0  0  0
    0.7671    1.3461   -0.5812 C   0  0  0  0  0  0  0  0  0  0  0  0
   -3.8339   -3.5333   -0.2400 C   0  0  0  0  0  0  0  0  0  0  0  0
    1.8141    0.4958   -0.2237 C   0  0  0  0  0  0  0  0  0  0  0  0
    0.8470    2.7075   -0.3572 C   0  0  0  0  0  0  0  0  0  0  0  0
    2.9538    1.0745    0.3728 C   0  0  0  0  0  0  0  0  0  0  0  0
    1.7545   -0.8910   -0.4427 C   0  0  0  0  0  0  0  0  0  0  0  0
    2.0014    3.1813    0.2321 C   0  0  0  0  0  0  0  0  0  0  0  0
    4.0035    0.2334    0.7322 C   0  0  0  0  0  0  0  0  0  0  0  0
    2.8189   -1.7086   -0.0737 C   0  0  0  0  0  0  0  0  0  0  0  0
    3.9445   -1.1454    0.5147 C   0  0  0  0  0  0  0  0  0  0  0  0
    3.8858   -3.8255    0.1161 C   0  0  0  0  0  0  0  0  0  0  0  0
   -4.9407   -0.1815   -0.4896 H   0  0  0  0  0  0  0  0  0  0  0  0
   -1.8151    2.2638   -0.3499 H   0  0  0  0  0  0  0  0  0  0  0  0
   -2.8321   -0.0092   -1.9122 H   0  0  0  0  0  0  0  0  0  0  0  0
   -3.5381    1.5568   -1.5503 H   0  0  0  0  0  0  0  0  0  0  0  0
   -3.8549   -1.5254    1.4063 H   0  0  0  0  0  0  0  0  0  0  0  0
   -4.8321    0.6738    1.8493 H   0  0  0  0  0  0  0  0  0  0  0  0
   -4.5094    2.0040    0.7339 H   0  0  0  0  0  0  0  0  0  0  0  0
   -1.7163   -1.1867    2.0279 H   0  0  0  0  0  0  0  0  0  0  0  0
   -1.0804   -1.3264    0.4228 H   0  0  0  0  0  0  0  0  0  0  0  0
   -2.5556    2.3458    1.8918 H   0  0  0  0  0  0  0  0  0  0  0  0
   -2.7501    0.8633    2.7936 H   0  0  0  0  0  0  0  0  0  0  0  0
   -0.4914   -0.2437   -1.4077 H   0  0  0  0  0  0  0  0  0  0  0  0
   -2.6952   -2.2186   -1.3784 H   0  0  0  0  0  0  0  0  0  0  0  0
    0.2277    1.2957   -2.9867 H   0  0  0  0  0  0  0  0  0  0  0  0
   -3.7641   -4.3213   -0.9818 H   0  0  0  0  0  0  0  0  0  0  0  0
   -4.3912   -3.7376    0.6675 H   0  0  0  0  0  0  0  0  0  0  0  0
    0.0638    3.4015   -0.6386 H   0  0  0  0  0  0  0  0  0  0  0  0
    0.9138   -1.3939   -0.9034 H   0  0  0  0  0  0  0  0  0  0  0  0
    2.1301    4.2402    0.4313 H   0  0  0  0  0  0  0  0  0  0  0  0
    4.8961    0.6513    1.1945 H   0  0  0  0  0  0  0  0  0  0  0  0
    4.8119   -1.7160    0.8289 H   0  0  0  0  0  0  0  0  0  0  0  0
    4.7852   -3.5483   -0.4441 H   0  0  0  0  0  0  0  0  0  0  0  0
    3.6651   -4.8696   -0.1288 H   0  0  0  0  0  0  0  0  0  0  0  0
    4.0404   -3.7765    1.1993 H   0  0  0  0  0  0  0  0  0  0  0  0
  1 12  1  0  0  0  0
  1 38  1  0  0  0  0
  2 22  1  0  0  0  0
  2 24  1  0  0  0  0
  3  6  1  0  0  0  0
  3 10  1  0  0  0  0
  3 11  1  0  0  0  0
  4 18  2  0  0  0  0
  4 20  1  0  0  0  0
  5  7  1  0  0  0  0
  5  8  1  0  0  0  0
  5  9  1  0  0  0  0
  5 25  1  0  0  0  0
  6  7  1  0  0  0  0
  6 12  1  0  0  0  0
  6 26  1  0  0  0  0
  7 27  1  0  0  0  0
  7 28  1  0  0  0  0
  8 10  1  0  0  0  0
  8 13  1  0  0  0  0
  8 29  1  0  0  0  0
  9 11  1  0  0  0  0
  9 30  1  0  0  0  0
  9 31  1  0  0  0  0
 10 32  1  0  0  0  0
 10 33  1  0  0  0  0
 11 34  1  0  0  0  0
 11 35  1  0  0  0  0
 12 14  1  0  0  0  0
 12 36  1  0  0  0  0
 13 15  2  0  0  0  0
 13 37  1  0  0  0  0
 14 16  2  0  0  0  0
 14 17  1  0  0  0  0
 15 39  1  0  0  0  0
 15 40  1  0  0  0  0
 16 18  1  0  0  0  0
 16 19  1  0  0  0  0
 17 20  2  0  0  0  0
 17 41  1  0  0  0  0
 18 21  1  0  0  0  0
 19 22  2  0  0  0  0
 19 42  1  0  0  0  0
 20 43  1  0  0  0  0
 21 23  2  0  0  0  0
 21 44  1  0  0  0  0
 22 23  1  0  0  0  0
 23 45  1  0  0  0  0
 24 46  1  0  0  0  0
 24 47  1  0  0  0  0
 24 48  1  0  0  0  0
M  END
> <PUBCHEM_COMPOUND_CID>
441074

> <PUBCHEM_CONFORMER_RMSD>
0.8

> <PUBCHEM_CONFORMER_DIVERSEORDER>
1
4
2
3

> <PUBCHEM_MMFF94_PARTIAL_CHARGES>
29
1 -0.68
10 0.27
11 0.27
12 0.42
13 -0.29
14 -0.14
15 -0.3
17 -0.15
18 0.31
19 -0.15
2 -0.36
20 0.16
21 -0.15
22 0.08
23 -0.15
24 0.28
3 -0.81
37 0.15
38 0.4
39 0.15
4 -0.62
40 0.15
41 0.15
42 0.15
43 0.15
44 0.15
45 0.15
6 0.27
8 0.14

> <PUBCHEM_EFFECTIVE_ROTOR_COUNT>
5.2

> <PUBCHEM_PHARMACOPHORE_FEATURES>
9
1 1 acceptor
1 1 donor
1 15 hydrophobe
1 2 acceptor
1 3 cation
1 4 acceptor
6 16 18 19 21 22 23 rings
6 4 14 16 17 18 20 rings
8 3 5 6 7 8 9 10 11 rings

> <PUBCHEM_HEAVY_ATOM_COUNT>
24

> <PUBCHEM_ATOM_DEF_STEREO_COUNT>
4

> <PUBCHEM_ATOM_UDEF_STEREO_COUNT>
0

> <PUBCHEM_BOND_DEF_STEREO_COUNT>
0

> <PUBCHEM_BOND_UDEF_STEREO_COUNT>
0

> <PUBCHEM_ISOTOPIC_ATOM_COUNT>
0

> <PUBCHEM_COMPONENT_COUNT>
1

> <PUBCHEM_CACTVS_TAUTO_COUNT>
1

> <PUBCHEM_CONFORMER_ID>
0006BAF200000001

> <PUBCHEM_MMFF94_ENERGY>
88.7678

> <PUBCHEM_FEATURE_SELFOVERLAP>
45.702

> <PUBCHEM_SHAPE_FINGERPRINT>
10616163 171 18271248338704581871
11370993 70 18123183764769478208
11552529 35 18201997767792947767
11582403 64 15807124037977446692
12107183 9 18054237522761829441
12506688 2 18336267843028080372
12553582 1 18124320406748477398
12596599 1 18341619178631120770
12633257 1 18410011005307332482
12714826 92 17532942597175479932
12839892 36 18051114080667488008
12969540 37 18408321116366072358
13533116 47 18342176674598126457
13544653 18 18189621544819941164
13583140 156 17703217537824908945
14178342 30 18342171198024337384
14223421 5 18338796822439561309
14251757 17 17753013294555979479
14289901 80 18198910386492061081
14787075 74 17194886000570202553
14790565 3 18193280917571849004
14844126 61 17470155969572751410
14863182 85 17829619709219455583
14866123 147 17258778118564021592
15099037 8 18340488979978713067
15422964 175 18338227155764229756
16752209 62 15285899374140471821
17492 89 18340490066284458515
1813 80 17458639873276280316
19141452 34 18408604738963184547
20028762 73 17912642703321645582
20681651 13 17987810734091618331
20775530 9 18409168805002389978
21421861 104 18125463031495302171
21673915 165 18194960966210075842
23559900 14 18340197583147708697
3797600 57 17344078625715478352
392239 28 17411895476398400352
463206 1 17620754324830253935
7097593 13 18342184349156331073
9709674 26 18189619508800013643

> <PUBCHEM_SHAPE_MULTIPOLES>
472.21
8.53
4.02
1.31
0.65
2.97
-0.28
4.81
1.92
-2.33
-0.18
0.87
-0.61
-0.3

> <PUBCHEM_SHAPE_SELFOVERLAP>
1030.007

> <PUBCHEM_SHAPE_VOLUME>
253

> <PUBCHEM_COORDINATE_TYPE>
2
5
10

$$$$