5481248
  -OEChem-03242010103D

 42 44  0     0  0  0  0  0  0999 V2000
   -1.1249    0.7482   -0.3662 O   0  0  0  0  0  0  0  0  0  0  0  0
    3.8088    1.3557    1.9473 O   0  0  0  0  0  0  0  0  0  0  0  0
    3.7876   -0.7094   -2.3739 O   0  0  0  0  0  0  0  0  0  0  0  0
    5.1699    0.5328   -0.3203 O   0  0  0  0  0  0  0  0  0  0  0  0
   -0.1234   -2.4603    1.1470 O   0  0  0  0  0  0  0  0  0  0  0  0
   -5.2575   -1.5312    0.7360 O   0  0  0  0  0  0  0  0  0  0  0  0
   -2.9020   -2.5643    1.2065 O   0  0  0  0  0  0  0  0  0  0  0  0
   -5.3225    2.7695   -1.2753 O   0  0  0  0  0  0  0  0  0  0  0  0
   -0.3765   -0.3156    0.1125 C   0  0  0  0  0  0  0  0  0  0  0  0
    1.0760   -0.0935   -0.0009 C   0  0  0  0  0  0  0  0  0  0  0  0
   -3.1602   -0.4434    0.2080 C   0  0  0  0  0  0  0  0  0  0  0  0
   -2.4922    0.6616   -0.3148 C   0  0  0  0  0  0  0  0  0  0  0  0
   -0.8969   -1.4341    0.6495 C   0  0  0  0  0  0  0  0  0  0  0  0
   -2.3714   -1.5699    0.7301 C   0  0  0  0  0  0  0  0  0  0  0  0
    1.7585   -0.5092   -1.1444 C   0  0  0  0  0  0  0  0  0  0  0  0
    1.7692    0.5327    1.0353 C   0  0  0  0  0  0  0  0  0  0  0  0
    3.1440    0.7432    0.9280 C   0  0  0  0  0  0  0  0  0  0  0  0
    3.1333   -0.2987   -1.2516 C   0  0  0  0  0  0  0  0  0  0  0  0
    3.8260    0.3274   -0.2155 C   0  0  0  0  0  0  0  0  0  0  0  0
   -4.5566   -0.4758    0.2355 C   0  0  0  0  0  0  0  0  0  0  0  0
   -3.2177    1.7436   -0.8140 C   0  0  0  0  0  0  0  0  0  0  0  0
   -4.6121    1.7151   -0.7885 C   0  0  0  0  0  0  0  0  0  0  0  0
   -5.2801    0.6074   -0.2648 C   0  0  0  0  0  0  0  0  0  0  0  0
    3.9103    2.7772    1.8929 C   0  0  0  0  0  0  0  0  0  0  0  0
    4.3142   -2.0348   -2.3686 C   0  0  0  0  0  0  0  0  0  0  0  0
    5.9963   -0.0744    0.6701 C   0  0  0  0  0  0  0  0  0  0  0  0
    1.2251   -0.9971   -1.9574 H   0  0  0  0  0  0  0  0  0  0  0  0
    1.2445    0.8593    1.9306 H   0  0  0  0  0  0  0  0  0  0  0  0
   -2.6996    2.6077   -1.2224 H   0  0  0  0  0  0  0  0  0  0  0  0
   -6.3671    0.5836   -0.2440 H   0  0  0  0  0  0  0  0  0  0  0  0
    0.8173   -2.2474    1.0372 H   0  0  0  0  0  0  0  0  0  0  0  0
   -4.6545   -2.2226    1.0491 H   0  0  0  0  0  0  0  0  0  0  0  0
    2.9159    3.2336    1.9255 H   0  0  0  0  0  0  0  0  0  0  0  0
    4.4391    3.0922    0.9879 H   0  0  0  0  0  0  0  0  0  0  0  0
    4.4784    3.1135    2.7645 H   0  0  0  0  0  0  0  0  0  0  0  0
    3.5084   -2.7666   -2.2523 H   0  0  0  0  0  0  0  0  0  0  0  0
    5.0496   -2.1557   -1.5672 H   0  0  0  0  0  0  0  0  0  0  0  0
    4.8100   -2.2102   -3.3271 H   0  0  0  0  0  0  0  0  0  0  0  0
    5.5379   -0.9723    1.0993 H   0  0  0  0  0  0  0  0  0  0  0  0
    6.2303    0.6474    1.4575 H   0  0  0  0  0  0  0  0  0  0  0  0
    6.9350   -0.3678    0.1910 H   0  0  0  0  0  0  0  0  0  0  0  0
   -6.2720    2.5814   -1.1792 H   0  0  0  0  0  0  0  0  0  0  0  0
  1  9  1  0  0  0  0
  1 12  1  0  0  0  0
  2 17  1  0  0  0  0
  2 24  1  0  0  0  0
  3 18  1  0  0  0  0
  3 25  1  0  0  0  0
  4 19  1  0  0  0  0
  4 26  1  0  0  0  0
  5 13  1  0  0  0  0
  5 31  1  0  0  0  0
  6 20  1  0  0  0  0
  6 32  1  0  0  0  0
  7 14  2  0  0  0  0
  8 22  1  0  0  0  0
  8 42  1  0  0  0  0
  9 10  1  0  0  0  0
  9 13  2  0  0  0  0
 10 15  2  0  0  0  0
 10 16  1  0  0  0  0
 11 12  1  0  0  0  0
 11 14  1  0  0  0  0
 11 20  2  0  0  0  0
 12 21  2  0  0  0  0
 13 14  1  0  0  0  0
 15 18  1  0  0  0  0
 15 27  1  0  0  0  0
 16 17  2  0  0  0  0
 16 28  1  0  0  0  0
 17 19  1  0  0  0  0
 18 19  2  0  0  0  0
 20 23  1  0  0  0  0
 21 22  1  0  0  0  0
 21 29  1  0  0  0  0
 22 23  2  0  0  0  0
 23 30  1  0  0  0  0
 24 33  1  0  0  0  0
 24 34  1  0  0  0  0
 24 35  1  0  0  0  0
 25 36  1  0  0  0  0
 25 37  1  0  0  0  0
 25 38  1  0  0  0  0
 26 39  1  0  0  0  0
 26 40  1  0  0  0  0
 26 41  1  0  0  0  0
M  END
> <PUBCHEM_COMPOUND_CID>
5481248

> <PUBCHEM_CONFORMER_RMSD>
0.8

> <PUBCHEM_CONFORMER_DIVERSEORDER>
1
2

> <PUBCHEM_MMFF94_PARTIAL_CHARGES>
33
1 -0.16
10 0.03
11 0.09
12 0.08
13 0.09
14 0.47
15 -0.15
16 -0.15
17 0.08
18 0.08
19 0.08
2 -0.36
20 0.08
21 -0.15
22 0.08
23 -0.15
24 0.28
25 0.28
26 0.28
27 0.15
28 0.15
29 0.15
3 -0.36
30 0.15
31 0.45
32 0.45
4 -0.36
42 0.45
5 -0.53
6 -0.53
7 -0.57
8 -0.53
9 0.05

> <PUBCHEM_EFFECTIVE_ROTOR_COUNT>
4

> <PUBCHEM_PHARMACOPHORE_FEATURES>
11
1 1 acceptor
1 2 acceptor
1 3 acceptor
1 4 acceptor
1 5 donor
1 6 donor
1 7 acceptor
1 8 donor
6 1 9 11 12 13 14 rings
6 10 15 16 17 18 19 rings
6 11 12 20 21 22 23 rings

> <PUBCHEM_HEAVY_ATOM_COUNT>
26

> <PUBCHEM_ATOM_DEF_STEREO_COUNT>
0

> <PUBCHEM_ATOM_UDEF_STEREO_COUNT>
0

> <PUBCHEM_BOND_DEF_STEREO_COUNT>
0

> <PUBCHEM_BOND_UDEF_STEREO_COUNT>
0

> <PUBCHEM_ISOTOPIC_ATOM_COUNT>
0

> <PUBCHEM_COMPONENT_COUNT>
1

> <PUBCHEM_CACTVS_TAUTO_COUNT>
24

> <PUBCHEM_CONFORMER_ID>
0053A32000000001

> <PUBCHEM_MMFF94_ENERGY>
110.2308

> <PUBCHEM_FEATURE_SELFOVERLAP>
55.86

> <PUBCHEM_SHAPE_FINGERPRINT>
10319926 262 18262220206048052032
10411042 1 17682970143486313931
10498660 4 18260831449768825893
10670039 82 17749680588321500463
10912923 1 16153429458798159721
11796584 16 18334297544457282178
12107183 9 17317303035135457096
12236239 1 16732983145726183478
12390115 104 18263935341583186633
12403259 415 18413106190584960233
12596602 18 16226055534253842081
12616971 3 15626231195332094007
12730499 353 17917716846271980942
13140716 1 17825377480786920659
13402501 40 18342448266402194624
13544592 145 18341622490214358294
13583140 156 18272087227432470822
13782708 43 18342742943918475367
14341114 328 16443061686510893665
14386348 63 18272658964904446710
15131766 46 14708356792589923223
15238133 3 17458346303761536260
16752209 62 18040722506000345107
17844677 252 18260837028599014241
200 152 16200155378367919667
20511986 3 16588299539998064164
20645477 56 18342740758027476339
20645477 70 17561092371422033326
21033648 29 18342444976298672240
21033650 10 17895774888980374764
21065201 7 18334019410120862011
21792961 116 18201171971142956550
22182313 1 18342182197361813447
22393880 68 18340487777287974919
23366157 5 17097487592885670643
23402539 116 18334288777531608709
23557571 272 18408889563429122541
23559900 14 18409738339651528286
3298306 158 18340211782320743103
341906 21 18186515518649836329
38570 142 15214458610721484990
4015057 19 17489300919237534571
469060 322 18041581199592504769
495365 180 18130499769428575746
5104073 3 18187641346174881361
5265222 85 18117292543995128358
5281201 14 17917716777130933276
633830 44 18272923895857238717
7064713 232 17894904097346233125
9981440 41 17894634730140884243

> <PUBCHEM_SHAPE_MULTIPOLES>
488.11
13.29
2.43
1.73
1.03
0.42
0.42
3.39
1.82
0.22
-0.39
-1.5
-0.27
4.44

> <PUBCHEM_SHAPE_SELFOVERLAP>
1073.428

> <PUBCHEM_SHAPE_VOLUME>
263.7

> <PUBCHEM_COORDINATE_TYPE>
2
5
10

$$$$