110
 OpenBabel03292021573D

197197  0  0  1  0  0  0  0  0999 V2000
    1.3543   -5.8647   -8.9147 C   0  0  0  0  0  0  0  0  0  0  0  0
    2.2633   -6.7811   -8.5219 C   0  0  0  0  0  0  0  0  0  0  0  0
    2.4368   -8.1710   -9.1797 C   0  0  2  0  0  0  0  0  0  0  0  0
    2.6097   -7.6945  -10.7213 C   0  0  0  0  0  0  0  0  0  0  0  0
    3.6424   -9.2919   -8.4790 C   0  0  1  0  0  0  0  0  0  0  0  0
    3.0078  -10.8466   -7.5825 C   0  0  0  0  0  0  0  0  0  0  0  0
    2.4035  -11.5643   -8.4219 O   0  0  0  0  0  0  0  0  0  0  0  0
    3.4089  -11.6630   -6.1472 N   0  0  0  0  0  0  0  0  0  0  0  0
    3.8099  -13.0557   -6.5567 C   0  0  0  0  0  0  0  0  0  0  0  0
    2.5470  -12.0268   -4.5459 C   0  0  1  0  0  0  0  0  0  0  0  0
    1.2356  -12.8954   -4.9818 C   0  0  2  0  0  0  0  0  0  0  0  0
    0.1648  -13.1489   -4.0470 O   0  0  0  0  0  0  0  0  0  0  0  0
    0.6055  -11.9505   -5.9684 C   0  0  2  0  0  0  0  0  0  0  0  0
    0.3903  -10.5686   -5.3293 C   0  0  0  0  0  0  0  0  0  0  0  0
   -0.4399  -12.4519   -6.9116 C   0  0  0  0  0  0  0  0  0  0  0  0
    0.0065  -13.6025   -7.7906 C   0  0  0  0  0  0  0  0  0  0  0  0
   -0.0105  -14.9185   -7.5278 C   0  0  0  0  0  0  0  0  0  0  0  0
    0.3205  -15.9336   -8.5818 C   0  0  0  0  0  0  0  0  0  0  0  0
    2.3861  -12.8992   -3.0105 C   0  0  0  0  0  0  0  0  0  0  0  0
    2.7702  -14.0808   -2.9207 O   0  0  0  0  0  0  0  0  0  0  0  0
    1.5918  -12.4705   -1.8967 N   0  0  0  0  0  0  0  0  0  0  0  0
    0.9586  -11.1964   -1.5617 C   0  0  1  0  0  0  0  0  0  0  0  0
   -0.3255  -11.2664   -0.7756 C   0  0  0  0  0  0  0  0  0  0  0  0
   -1.5117  -11.6773   -1.6168 C   0  0  0  0  0  0  0  0  0  0  0  0
    1.9117  -10.1668   -0.9299 C   0  0  0  0  0  0  0  0  0  0  0  0
    2.2476  -10.1899    0.2685 O   0  0  0  0  0  0  0  0  0  0  0  0
    2.4417   -9.3265   -1.9056 N   0  0  0  0  0  0  0  0  0  0  0  0
    1.5496   -8.1827   -1.9832 C   0  0  0  0  0  0  0  0  0  0  0  0
    3.9095   -9.0074   -2.0680 C   0  0  0  0  0  0  0  0  0  0  0  0
    5.2261   -9.9518   -2.3720 C   0  0  0  0  0  0  0  0  0  0  0  0
    6.1975   -9.4148   -2.9111 O   0  0  0  0  0  0  0  0  0  0  0  0
    5.2818  -11.2795   -1.9327 N   0  0  0  0  0  0  0  0  0  0  0  0
    4.2546  -11.6745   -1.0658 C   0  0  0  0  0  0  0  0  0  0  0  0
    6.3809  -12.3009   -2.0714 C   0  0  2  0  0  0  0  0  0  0  0  0
    5.9348  -13.5043   -2.9539 C   0  0  0  0  0  0  0  0  0  0  0  0
    6.7415  -14.8272   -2.9627 C   0  0  0  0  0  0  0  0  0  0  0  0
    6.4766  -15.7277   -1.7472 C   0  0  0  0  0  0  0  0  0  0  0  0
    6.3550  -15.6795   -4.1877 C   0  0  0  0  0  0  0  0  0  0  0  0
    6.7839  -12.8104   -0.6467 C   0  0  0  0  0  0  0  0  0  0  0  0
    5.9859  -13.1985    0.2051 O   0  0  0  0  0  0  0  0  0  0  0  0
    8.0874  -12.8765   -0.2556 N   0  0  0  0  0  0  0  0  0  0  0  0
    9.1002  -11.9038   -0.6338 C   0  0  2  0  0  0  0  0  0  0  0  0
    8.5402  -10.4548   -0.5548 C   0  0  0  0  0  0  0  0  0  0  0  0
    9.5906   -9.4293   -0.9433 C   0  0  0  0  0  0  0  0  0  0  0  0
    7.9412  -10.1329    0.8240 C   0  0  0  0  0  0  0  0  0  0  0  0
    9.6969  -12.3559   -2.0109 C   0  0  0  0  0  0  0  0  0  0  0  0
    9.3459  -11.8132   -3.0600 O   0  0  0  0  0  0  0  0  0  0  0  0
   10.5317  -13.4914   -2.0345 N   0  0  0  0  0  0  0  0  0  0  0  0
   11.5298  -13.6363   -0.9789 C   0  0  0  0  0  0  0  0  0  0  0  0
   10.8367  -14.0755   -3.3984 C   0  0  2  0  0  0  0  0  0  0  0  0
   11.1478  -15.6023   -3.3456 C   0  0  0  0  0  0  0  0  0  0  0  0
   11.8798  -16.3126   -4.5172 C   0  0  0  0  0  0  0  0  0  0  0  0
   12.1735  -17.7657   -4.1341 C   0  0  0  0  0  0  0  0  0  0  0  0
   11.1436  -16.3676   -5.8421 C   0  0  0  0  0  0  0  0  0  0  0  0
   11.9538  -13.2745   -4.1051 C   0  0  0  0  0  0  0  0  0  0  0  0
   13.0361  -13.0445   -3.5515 O   0  0  0  0  0  0  0  0  0  0  0  0
   11.8161  -12.8429   -5.3981 N   0  0  0  0  0  0  0  0  0  0  0  0
   10.5678  -12.4902   -6.0740 C   0  0  1  0  0  0  0  0  0  0  0  0
   10.7289  -11.1938   -6.8479 C   0  0  0  0  0  0  0  0  0  0  0  0
    9.8271  -13.6932   -6.7402 C   0  0  0  0  0  0  0  0  0  0  0  0
    9.1559  -14.4459   -6.0112 O   0  0  0  0  0  0  0  0  0  0  0  0
    9.8177  -14.0809   -8.0350 N   0  0  0  0  0  0  0  0  0  0  0  0
   10.2519  -13.4830   -9.2905 C   0  0  2  0  0  0  0  0  0  0  0  0
   11.7377  -13.1997   -9.3572 C   0  0  0  0  0  0  0  0  0  0  0  0
    9.3495  -12.2909   -9.6409 C   0  0  0  0  0  0  0  0  0  0  0  0
    9.8240  -11.1645   -9.8138 O   0  0  0  0  0  0  0  0  0  0  0  0
    7.9775  -12.5515   -9.7027 N   0  0  0  0  0  0  0  0  0  0  0  0
    7.5478  -13.4561  -10.7853 C   0  0  0  0  0  0  0  0  0  0  0  0
    7.1139  -11.3699   -9.4801 C   0  0  1  0  0  0  0  0  0  0  0  0
    7.0990  -10.6927   -8.1256 C   0  0  0  0  0  0  0  0  0  0  0  0
    6.3945  -11.3802   -7.0055 C   0  0  0  0  0  0  0  0  0  0  0  0
    7.1187  -12.6449   -6.6755 C   0  0  0  0  0  0  0  0  0  0  0  0
    6.3655  -10.4744   -5.7790 C   0  0  0  0  0  0  0  0  0  0  0  0
    7.3530  -10.3739  -10.6047 C   0  0  0  0  0  0  0  0  0  0  0  0
    7.1445  -10.8280  -11.7426 O   0  0  0  0  0  0  0  0  0  0  0  0
    7.6114   -9.0179  -10.3811 N   0  0  0  0  0  0  0  0  0  0  0  0
    8.3305   -8.3172   -9.2935 C   0  0  0  0  0  0  0  0  0  0  0  0
    6.7604   -8.1397  -11.1924 C   0  0  1  0  0  0  0  0  0  0  0  0
    6.9780   -8.5200  -12.7011 C   0  0  0  0  0  0  0  0  0  0  0  0
    7.1350   -7.5639  -13.9120 C   0  0  0  0  0  0  0  0  0  0  0  0
    8.2413   -6.5113  -13.8069 C   0  0  0  0  0  0  0  0  0  0  0  0
    7.4839   -8.4375  -15.1540 C   0  0  0  0  0  0  0  0  0  0  0  0
    5.4826   -8.1798  -10.0977 C   0  0  0  0  0  0  0  0  0  0  0  0
    5.3665   -7.1954   -9.3454 O   0  0  0  0  0  0  0  0  0  0  0  0
    4.6807   -9.3572   -9.7935 N   0  0  0  0  0  0  0  0  0  0  0  0
    4.2094  -10.0443  -11.0016 C   0  0  0  0  0  0  0  0  0  0  0  0
    1.4135   -4.8237   -8.6066 H   0  0  0  0  0  0  0  0  0  0  0  0
    0.6031   -6.0721   -9.6771 H   0  0  0  0  0  0  0  0  0  0  0  0
    3.0684   -6.4393   -7.8672 H   0  0  0  0  0  0  0  0  0  0  0  0
    1.4775   -8.6994   -9.1331 H   0  0  0  0  0  0  0  0  0  0  0  0
    3.5958   -7.2923  -10.9695 H   0  0  0  0  0  0  0  0  0  0  0  0
    1.9834   -6.8433  -11.0208 H   0  0  0  0  0  0  0  0  0  0  0  0
    2.3300   -8.4545  -11.4509 H   0  0  0  0  0  0  0  0  0  0  0  0
    4.1811   -8.7317   -7.7092 H   0  0  0  0  0  0  0  0  0  0  0  0
    3.5020  -13.3380   -7.5571 H   0  0  0  0  0  0  0  0  0  0  0  0
    3.4357  -13.8203   -5.8672 H   0  0  0  0  0  0  0  0  0  0  0  0
    4.8685  -13.2011   -6.4220 H   0  0  0  0  0  0  0  0  0  0  0  0
    3.5462  -12.4667   -4.3445 H   0  0  0  0  0  0  0  0  0  0  0  0
    1.5157  -13.8750   -5.3840 H   0  0  0  0  0  0  0  0  0  0  0  0
    0.4138  -13.8963   -3.4694 H   0  0  0  0  0  0  0  0  0  0  0  0
    1.3818  -11.8246   -6.6555 H   0  0  0  0  0  0  0  0  0  0  0  0
   -0.5189  -10.5290   -4.7372 H   0  0  0  0  0  0  0  0  0  0  0  0
    0.3985   -9.7982   -6.1006 H   0  0  0  0  0  0  0  0  0  0  0  0
    1.2058  -10.2656   -4.6524 H   0  0  0  0  0  0  0  0  0  0  0  0
   -0.5871  -11.6158   -7.6170 H   0  0  0  0  0  0  0  0  0  0  0  0
   -1.4038  -12.6317   -6.4310 H   0  0  0  0  0  0  0  0  0  0  0  0
    0.3673  -13.2906   -8.7732 H   0  0  0  0  0  0  0  0  0  0  0  0
   -0.3109  -15.2929   -6.5528 H   0  0  0  0  0  0  0  0  0  0  0  0
    0.6152  -15.4631   -9.5267 H   0  0  0  0  0  0  0  0  0  0  0  0
   -0.5676  -16.5429   -8.7828 H   0  0  0  0  0  0  0  0  0  0  0  0
    1.1320  -16.5948   -8.2671 H   0  0  0  0  0  0  0  0  0  0  0  0
    1.6801  -13.1362   -1.1214 H   0  0  0  0  0  0  0  0  0  0  0  0
    0.7258  -10.7497   -2.5537 H   0  0  0  0  0  0  0  0  0  0  0  0
   -0.5348  -10.2898   -0.3531 H   0  0  0  0  0  0  0  0  0  0  0  0
   -0.2223  -11.9465    0.1061 H   0  0  0  0  0  0  0  0  0  0  0  0
   -1.3898  -11.3410   -2.6519 H   0  0  0  0  0  0  0  0  0  0  0  0
   -2.4263  -11.2155   -1.2379 H   0  0  0  0  0  0  0  0  0  0  0  0
   -1.6422  -12.7614   -1.6219 H   0  0  0  0  0  0  0  0  0  0  0  0
    0.5095   -8.4866   -1.7969 H   0  0  0  0  0  0  0  0  0  0  0  0
    1.6041   -7.7323   -2.9732 H   0  0  0  0  0  0  0  0  0  0  0  0
    1.8087   -7.4586   -1.1981 H   0  0  0  0  0  0  0  0  0  0  0  0
    4.1890   -8.2952   -1.2913 H   0  0  0  0  0  0  0  0  0  0  0  0
    3.8690   -8.4438   -3.0209 H   0  0  0  0  0  0  0  0  0  0  0  0
    4.3105  -11.0917   -0.1475 H   0  0  0  0  0  0  0  0  0  0  0  0
    4.1517  -12.7412   -0.8893 H   0  0  0  0  0  0  0  0  0  0  0  0
    3.4490  -11.4142   -1.6866 H   0  0  0  0  0  0  0  0  0  0  0  0
    7.1901  -11.8070   -2.5884 H   0  0  0  0  0  0  0  0  0  0  0  0
    4.9215  -13.7762   -2.6901 H   0  0  0  0  0  0  0  0  0  0  0  0
    5.8669  -13.1247   -3.9750 H   0  0  0  0  0  0  0  0  0  0  0  0
    7.8087  -14.5977   -3.0219 H   0  0  0  0  0  0  0  0  0  0  0  0
    5.4696  -16.1598   -1.7850 H   0  0  0  0  0  0  0  0  0  0  0  0
    6.5730  -15.2264   -0.7908 H   0  0  0  0  0  0  0  0  0  0  0  0
    7.1934  -16.5557   -1.7296 H   0  0  0  0  0  0  0  0  0  0  0  0
    5.2896  -15.9411   -4.1657 H   0  0  0  0  0  0  0  0  0  0  0  0
    6.9238  -16.6169   -4.2016 H   0  0  0  0  0  0  0  0  0  0  0  0
    6.5496  -15.1654   -5.1295 H   0  0  0  0  0  0  0  0  0  0  0  0
    8.1252  -13.2190    0.6956 H   0  0  0  0  0  0  0  0  0  0  0  0
    9.8704  -11.9647    0.1364 H   0  0  0  0  0  0  0  0  0  0  0  0
    7.7341  -10.3239   -1.2698 H   0  0  0  0  0  0  0  0  0  0  0  0
   10.4553   -9.4780   -0.2772 H   0  0  0  0  0  0  0  0  0  0  0  0
    9.1660   -8.4213   -0.9027 H   0  0  0  0  0  0  0  0  0  0  0  0
    9.9306   -9.5916   -1.9702 H   0  0  0  0  0  0  0  0  0  0  0  0
    8.6600  -10.3057    1.6266 H   0  0  0  0  0  0  0  0  0  0  0  0
    7.0507  -10.7449    1.0384 H   0  0  0  0  0  0  0  0  0  0  0  0
    7.6097   -9.0917    0.8706 H   0  0  0  0  0  0  0  0  0  0  0  0
   11.1168  -13.4170    0.0048 H   0  0  0  0  0  0  0  0  0  0  0  0
   12.3433  -12.9299   -1.1631 H   0  0  0  0  0  0  0  0  0  0  0  0
   11.9167  -14.6505   -0.9195 H   0  0  0  0  0  0  0  0  0  0  0  0
    9.9100  -13.9647   -3.9553 H   0  0  0  0  0  0  0  0  0  0  0  0
   11.7796  -15.7996   -2.4772 H   0  0  0  0  0  0  0  0  0  0  0  0
   10.2046  -16.1250   -3.1342 H   0  0  0  0  0  0  0  0  0  0  0  0
   12.8407  -15.8124   -4.6864 H   0  0  0  0  0  0  0  0  0  0  0  0
   11.2441  -18.3123   -3.9389 H   0  0  0  0  0  0  0  0  0  0  0  0
   12.8071  -17.8175   -3.2463 H   0  0  0  0  0  0  0  0  0  0  0  0
   12.6976  -18.2786   -4.9490 H   0  0  0  0  0  0  0  0  0  0  0  0
   10.0803  -16.5901   -5.7098 H   0  0  0  0  0  0  0  0  0  0  0  0
   11.5482  -17.1247   -6.5217 H   0  0  0  0  0  0  0  0  0  0  0  0
   11.3034  -15.4325   -6.3642 H   0  0  0  0  0  0  0  0  0  0  0  0
   12.6229  -12.2933   -5.6650 H   0  0  0  0  0  0  0  0  0  0  0  0
    9.8716  -12.2046   -5.2790 H   0  0  0  0  0  0  0  0  0  0  0  0
   11.6530  -11.1397   -7.4242 H   0  0  0  0  0  0  0  0  0  0  0  0
   10.7318  -10.3357   -6.1649 H   0  0  0  0  0  0  0  0  0  0  0  0
    9.9016  -11.0351   -7.5176 H   0  0  0  0  0  0  0  0  0  0  0  0
    9.1744  -14.8585   -8.1357 H   0  0  0  0  0  0  0  0  0  0  0  0
   10.0566  -14.2472  -10.0547 H   0  0  0  0  0  0  0  0  0  0  0  0
   12.1650  -12.9661   -8.3802 H   0  0  0  0  0  0  0  0  0  0  0  0
   11.9664  -12.3784  -10.0465 H   0  0  0  0  0  0  0  0  0  0  0  0
   12.2621  -14.0848   -9.7146 H   0  0  0  0  0  0  0  0  0  0  0  0
    8.0746  -14.4147  -10.7320 H   0  0  0  0  0  0  0  0  0  0  0  0
    7.7992  -13.0268  -11.7618 H   0  0  0  0  0  0  0  0  0  0  0  0
    6.4730  -13.6482  -10.7365 H   0  0  0  0  0  0  0  0  0  0  0  0
    6.0825  -11.7478   -9.6201 H   0  0  0  0  0  0  0  0  0  0  0  0
    6.5888   -9.7307   -8.1942 H   0  0  0  0  0  0  0  0  0  0  0  0
    8.1088  -10.5270   -7.7947 H   0  0  0  0  0  0  0  0  0  0  0  0
    5.4023  -11.5749   -7.3778 H   0  0  0  0  0  0  0  0  0  0  0  0
    8.1380  -12.3278   -6.5692 H   0  0  0  0  0  0  0  0  0  0  0  0
    7.0236  -13.4055   -7.4532 H   0  0  0  0  0  0  0  0  0  0  0  0
    6.8415  -13.0887   -5.7274 H   0  0  0  0  0  0  0  0  0  0  0  0
    7.3340   -9.9835   -5.6279 H   0  0  0  0  0  0  0  0  0  0  0  0
    6.1384  -11.0456   -4.8783 H   0  0  0  0  0  0  0  0  0  0  0  0
    5.6077   -9.6930   -5.8837 H   0  0  0  0  0  0  0  0  0  0  0  0
    8.5566   -8.8880   -8.4066 H   0  0  0  0  0  0  0  0  0  0  0  0
    7.7548   -7.4462   -8.9573 H   0  0  0  0  0  0  0  0  0  0  0  0
    9.2824   -7.9599   -9.6849 H   0  0  0  0  0  0  0  0  0  0  0  0
    7.1654   -7.1211  -11.1054 H   0  0  0  0  0  0  0  0  0  0  0  0
    6.2255   -9.2518  -13.0008 H   0  0  0  0  0  0  0  0  0  0  0  0
    7.9691   -9.0110  -12.7300 H   0  0  0  0  0  0  0  0  0  0  0  0
    6.1785   -7.0679  -14.0946 H   0  0  0  0  0  0  0  0  0  0  0  0
    9.2396   -6.9653  -13.7633 H   0  0  0  0  0  0  0  0  0  0  0  0
    8.1138   -5.8633  -12.9393 H   0  0  0  0  0  0  0  0  0  0  0  0
    8.2299   -5.8750  -14.7034 H   0  0  0  0  0  0  0  0  0  0  0  0
    8.4624   -8.9272  -15.0386 H   0  0  0  0  0  0  0  0  0  0  0  0
    7.5338   -7.8374  -16.0691 H   0  0  0  0  0  0  0  0  0  0  0  0
    6.7446   -9.2297  -15.3105 H   0  0  0  0  0  0  0  0  0  0  0  0
    4.7615  -10.9551  -11.2057 H   0  0  0  0  0  0  0  0  0  0  0  0
    4.3277   -9.3843  -11.8746 H   0  0  0  0  0  0  0  0  0  0  0  0
    3.1509  -10.2982  -10.9153 H   0  0  0  0  0  0  0  0  0  0  0  0
  1  2  2  0  0  0  0
  1 87  1  0  0  0  0
  1 88  1  0  0  0  0
  2 89  1  0  0  0  0
  3  4  1  0  0  0  0
  3  2  1  0  0  0  0
  3 90  1  6  0  0  0
  4 91  1  0  0  0  0
  4 92  1  0  0  0  0
  4 93  1  0  0  0  0
  5  6  1  0  0  0  0
  5 85  1  0  0  0  0
  5  3  1  0  0  0  0
  5 94  1  1  0  0  0
  6  7  2  0  0  0  0
  6  8  1  0  0  0  0
  8  9  1  0  0  0  0
  8 10  1  0  0  0  0
  9 95  1  0  0  0  0
  9 96  1  0  0  0  0
  9 97  1  0  0  0  0
 10 19  1  0  0  0  0
 10 98  1  1  0  0  0
 11 12  1  0  0  0  0
 11 10  1  0  0  0  0
 11 99  1  1  0  0  0
 12100  1  0  0  0  0
 13 15  1  0  0  0  0
 13 14  1  0  0  0  0
 13 11  1  0  0  0  0
 13101  1  6  0  0  0
 14102  1  0  0  0  0
 14103  1  0  0  0  0
 14104  1  0  0  0  0
 15 16  1  0  0  0  0
 15105  1  0  0  0  0
 15106  1  0  0  0  0
 16 17  2  0  0  0  0
 16107  1  0  0  0  0
 17 18  1  0  0  0  0
 17108  1  0  0  0  0
 18109  1  0  0  0  0
 18110  1  0  0  0  0
 18111  1  0  0  0  0
 19 20  2  0  0  0  0
 19 21  1  0  0  0  0
 21 22  1  0  0  0  0
 21112  1  0  0  0  0
 22 23  1  0  0  0  0
 22 25  1  0  0  0  0
 22113  1  6  0  0  0
 23 24  1  0  0  0  0
 23114  1  0  0  0  0
 23115  1  0  0  0  0
 24116  1  0  0  0  0
 24117  1  0  0  0  0
 24118  1  0  0  0  0
 25 26  2  0  0  0  0
 25 27  1  0  0  0  0
 27 28  1  0  0  0  0
 27 29  1  0  0  0  0
 28119  1  0  0  0  0
 28120  1  0  0  0  0
 28121  1  0  0  0  0
 29 30  1  0  0  0  0
 29122  1  0  0  0  0
 29123  1  0  0  0  0
 30 31  2  0  0  0  0
 30 32  1  0  0  0  0
 32 33  1  0  0  0  0
 32 34  1  0  0  0  0
 33124  1  0  0  0  0
 33125  1  0  0  0  0
 33126  1  0  0  0  0
 34 39  1  0  0  0  0
 34 35  1  0  0  0  0
 34127  1  6  0  0  0
 35 36  1  0  0  0  0
 35128  1  0  0  0  0
 35129  1  0  0  0  0
 36 37  1  0  0  0  0
 36 38  1  0  0  0  0
 36130  1  0  0  0  0
 37131  1  0  0  0  0
 37132  1  0  0  0  0
 37133  1  0  0  0  0
 38134  1  0  0  0  0
 38135  1  0  0  0  0
 38136  1  0  0  0  0
 39 40  2  0  0  0  0
 39 41  1  0  0  0  0
 41 42  1  0  0  0  0
 41137  1  0  0  0  0
 42 46  1  0  0  0  0
 42 43  1  0  0  0  0
 42138  1  1  0  0  0
 43 44  1  0  0  0  0
 43 45  1  0  0  0  0
 43139  1  0  0  0  0
 44140  1  0  0  0  0
 44141  1  0  0  0  0
 44142  1  0  0  0  0
 45143  1  0  0  0  0
 45144  1  0  0  0  0
 45145  1  0  0  0  0
 46 47  2  0  0  0  0
 46 48  1  0  0  0  0
 48 49  1  0  0  0  0
 48 50  1  0  0  0  0
 49146  1  0  0  0  0
 49147  1  0  0  0  0
 49148  1  0  0  0  0
 50 55  1  0  0  0  0
 50 51  1  0  0  0  0
 50149  1  6  0  0  0
 51 52  1  0  0  0  0
 51150  1  0  0  0  0
 51151  1  0  0  0  0
 52 53  1  0  0  0  0
 52 54  1  0  0  0  0
 52152  1  0  0  0  0
 53153  1  0  0  0  0
 53154  1  0  0  0  0
 53155  1  0  0  0  0
 54156  1  0  0  0  0
 54157  1  0  0  0  0
 54158  1  0  0  0  0
 55 56  2  0  0  0  0
 55 57  1  0  0  0  0
 57 58  1  0  0  0  0
 57159  1  0  0  0  0
 58 59  1  0  0  0  0
 58 60  1  0  0  0  0
 58160  1  1  0  0  0
 59161  1  0  0  0  0
 59162  1  0  0  0  0
 59163  1  0  0  0  0
 60 61  2  0  0  0  0
 60 62  1  0  0  0  0
 62 63  1  0  0  0  0
 62164  1  0  0  0  0
 63 65  1  0  0  0  0
 63 64  1  0  0  0  0
 63165  1  6  0  0  0
 64166  1  0  0  0  0
 64167  1  0  0  0  0
 64168  1  0  0  0  0
 65 66  2  0  0  0  0
 65 67  1  0  0  0  0
 67 68  1  0  0  0  0
 67 69  1  0  0  0  0
 68169  1  0  0  0  0
 68170  1  0  0  0  0
 68171  1  0  0  0  0
 69 70  1  0  0  0  0
 69 74  1  0  0  0  0
 69172  1  6  0  0  0
 70 71  1  0  0  0  0
 70173  1  0  0  0  0
 70174  1  0  0  0  0
 71 72  1  0  0  0  0
 71 73  1  0  0  0  0
 71175  1  0  0  0  0
 72176  1  0  0  0  0
 72177  1  0  0  0  0
 72178  1  0  0  0  0
 73179  1  0  0  0  0
 73180  1  0  0  0  0
 73181  1  0  0  0  0
 74 75  2  0  0  0  0
 74 76  1  0  0  0  0
 76 77  1  0  0  0  0
 76 78  1  0  0  0  0
 77182  1  0  0  0  0
 77183  1  0  0  0  0
 77184  1  0  0  0  0
 78 79  1  0  0  0  0
 78 83  1  0  0  0  0
 78185  1  1  0  0  0
 79 80  1  0  0  0  0
 79186  1  0  0  0  0
 79187  1  0  0  0  0
 80 81  1  0  0  0  0
 80 82  1  0  0  0  0
 80188  1  0  0  0  0
 81189  1  0  0  0  0
 81190  1  0  0  0  0
 81191  1  0  0  0  0
 82192  1  0  0  0  0
 82193  1  0  0  0  0
 82194  1  0  0  0  0
 83 84  2  0  0  0  0
 83 85  1  0  0  0  0
 85 86  1  0  0  0  0
 86195  1  0  0  0  0
 86196  1  0  0  0  0
 86197  1  0  0  0  0
M  END
>  <Energy>
888.238

$$$$