111
 OpenBabel03292021573D

194194  0  0  1  0  0  0  0  0999 V2000
    1.8795   -2.8569    3.0736 C   0  0  0  0  0  0  0  0  0  0  0  0
    3.2120   -2.9812    2.4099 C   0  0  0  0  0  0  0  0  0  0  0  0
    3.3648   -3.4894    1.1778 C   0  0  0  0  0  0  0  0  0  0  0  0
    4.6678   -3.5341    0.4280 C   0  0  0  0  0  0  0  0  0  0  0  0
    4.6708   -2.6176   -0.8295 C   0  0  1  0  0  0  0  0  0  0  0  0
    4.3564   -1.1570   -0.4320 C   0  0  0  0  0  0  0  0  0  0  0  0
    6.0435   -2.5741   -1.5396 C   0  0  1  0  0  0  0  0  0  0  0  0
    6.9505   -2.2273   -0.4512 O   0  0  0  0  0  0  0  0  0  0  0  0
    6.6275   -3.8045   -2.3445 C   0  0  1  0  0  0  0  0  0  0  0  0
    5.3665   -4.3627   -3.5971 C   0  0  0  0  0  0  0  0  0  0  0  0
    4.2416   -4.5344   -3.0504 O   0  0  0  0  0  0  0  0  0  0  0  0
    5.2022   -4.7878   -4.9398 N   0  0  0  0  0  0  0  0  0  0  0  0
    5.6523   -5.1425   -6.5468 C   0  0  1  0  0  0  0  0  0  0  0  0
    6.0173   -4.3527   -7.9284 C   0  0  1  0  0  0  0  0  0  0  0  0
    6.5889   -5.2380   -9.1141 C   0  0  0  0  0  0  0  0  0  0  0  0
    4.9960   -3.5129   -8.4303 O   0  0  0  0  0  0  0  0  0  0  0  0
    7.0242   -5.5521   -6.3046 C   0  0  0  0  0  0  0  0  0  0  0  0
    7.4675   -6.6544   -6.6427 O   0  0  0  0  0  0  0  0  0  0  0  0
    7.7239   -4.5235   -5.6982 N   0  0  0  0  0  0  0  0  0  0  0  0
    7.2965   -3.0543   -5.5926 C   0  0  0  0  0  0  0  0  0  0  0  0
    8.2735   -5.1100   -4.5324 C   0  0  0  0  0  0  0  0  0  0  0  0
    7.6757   -6.3923   -3.7821 C   0  0  0  0  0  0  0  0  0  0  0  0
    6.7101   -6.3664   -3.0328 O   0  0  0  0  0  0  0  0  0  0  0  0
    8.3431   -7.5486   -3.9607 N   0  0  0  0  0  0  0  0  0  0  0  0
    9.4363   -7.6223   -4.9491 C   0  0  0  0  0  0  0  0  0  0  0  0
    8.0991   -8.6636   -2.9384 C   0  0  2  0  0  0  0  0  0  0  0  0
    9.2816   -9.6088   -3.1093 C   0  0  0  0  0  0  0  0  0  0  0  0
    9.6162  -10.8506   -2.3159 C   0  0  0  0  0  0  0  0  0  0  0  0
    8.6343  -11.9778   -2.5757 C   0  0  0  0  0  0  0  0  0  0  0  0
   11.0189  -11.2399   -2.8214 C   0  0  0  0  0  0  0  0  0  0  0  0
    6.7212   -9.3628   -3.0942 C   0  0  0  0  0  0  0  0  0  0  0  0
    6.2426   -9.5912   -4.2038 O   0  0  0  0  0  0  0  0  0  0  0  0
    6.0188   -9.8759   -2.0214 N   0  0  0  0  0  0  0  0  0  0  0  0
    5.9382   -9.5532   -0.5689 C   0  0  2  0  0  0  0  0  0  0  0  0
    5.5275   -8.0835   -0.2968 C   0  0  0  0  0  0  0  0  0  0  0  0
    5.3918   -7.7881    1.2066 C   0  0  0  0  0  0  0  0  0  0  0  0
    4.1990   -7.7222   -0.9784 C   0  0  0  0  0  0  0  0  0  0  0  0
    7.2393   -9.9258    0.2196 C   0  0  0  0  0  0  0  0  0  0  0  0
    8.2064   -9.1768    0.1434 O   0  0  0  0  0  0  0  0  0  0  0  0
    7.3415  -11.1431    0.9099 N   0  0  0  0  0  0  0  0  0  0  0  0
    6.1895  -11.7701    1.5641 C   0  0  0  0  0  0  0  0  0  0  0  0
    8.7037  -11.4712    1.4698 C   0  0  2  0  0  0  0  0  0  0  0  0
    9.0584  -12.9779    1.2969 C   0  0  0  0  0  0  0  0  0  0  0  0
   10.4838  -13.3886    1.7333 C   0  0  0  0  0  0  0  0  0  0  0  0
   10.6613  -13.4833    3.2543 C   0  0  0  0  0  0  0  0  0  0  0  0
   10.8847  -14.7542    1.1713 C   0  0  0  0  0  0  0  0  0  0  0  0
    8.8106  -11.0014    2.9289 C   0  0  0  0  0  0  0  0  0  0  0  0
    8.0331  -11.3771    3.8086 O   0  0  0  0  0  0  0  0  0  0  0  0
    9.8211  -10.1732    3.3405 N   0  0  0  0  0  0  0  0  0  0  0  0
   10.8644   -9.4707    2.6021 C   0  0  1  0  0  0  0  0  0  0  0  0
   11.1211   -8.1753    3.3395 C   0  0  0  0  0  0  0  0  0  0  0  0
   12.1771  -10.2867    2.4367 C   0  0  0  0  0  0  0  0  0  0  0  0
   12.3477  -11.4121    2.8889 O   0  0  0  0  0  0  0  0  0  0  0  0
   13.2323   -9.7634    1.7237 N   0  0  0  0  0  0  0  0  0  0  0  0
   14.3891   -9.2621    2.5038 C   0  0  2  0  0  0  0  0  0  0  0  0
   14.3728   -9.6587    3.9862 C   0  0  0  0  0  0  0  0  0  0  0  0
   14.4974   -7.7355    2.3084 C   0  0  0  0  0  0  0  0  0  0  0  0
   14.1255   -6.9303    3.1842 O   0  0  0  0  0  0  0  0  0  0  0  0
   14.8483   -7.3268    1.0255 N   0  0  0  0  0  0  0  0  0  0  0  0
   16.2128   -7.5969    0.5985 C   0  0  0  0  0  0  0  0  0  0  0  0
   14.2319   -6.0592    0.5435 C   0  0  1  0  0  0  0  0  0  0  0  0
   12.7116   -6.1893    0.5601 C   0  0  0  0  0  0  0  0  0  0  0  0
   12.0501   -7.2587   -0.3106 C   0  0  0  0  0  0  0  0  0  0  0  0
   10.5514   -7.1571   -0.0436 C   0  0  0  0  0  0  0  0  0  0  0  0
   12.3451   -7.0287   -1.7895 C   0  0  0  0  0  0  0  0  0  0  0  0
   14.8532   -4.7835    1.2115 C   0  0  0  0  0  0  0  0  0  0  0  0
   16.0891   -4.6697    1.2724 O   0  0  0  0  0  0  0  0  0  0  0  0
   14.1584   -3.7028    1.6745 N   0  0  0  0  0  0  0  0  0  0  0  0
   12.7183   -3.3203    1.7030 C   0  0  1  0  0  0  0  0  0  0  0  0
   12.4849   -2.2722    2.7925 C   0  0  0  0  0  0  0  0  0  0  0  0
   12.8999   -2.5601    4.2602 C   0  0  0  0  0  0  0  0  0  0  0  0
   14.3924   -2.7749    4.5015 C   0  0  0  0  0  0  0  0  0  0  0  0
   12.4268   -1.3637    5.1043 C   0  0  0  0  0  0  0  0  0  0  0  0
   12.3329   -2.9648    0.1740 C   0  0  0  0  0  0  0  0  0  0  0  0
   13.0948   -3.4977   -0.6534 O   0  0  0  0  0  0  0  0  0  0  0  0
   11.1674   -2.3389   -0.2931 N   0  0  0  0  0  0  0  0  0  0  0  0
   10.6024   -1.1973    0.4180 C   0  0  0  0  0  0  0  0  0  0  0  0
   10.7607   -2.3106   -1.8027 C   0  0  1  0  0  0  0  0  0  0  0  0
   11.6651   -3.0871   -2.8341 C   0  0  0  0  0  0  0  0  0  0  0  0
   11.0802   -3.1087   -4.2491 C   0  0  0  0  0  0  0  0  0  0  0  0
   13.1228   -2.5834   -3.0426 C   0  0  0  0  0  0  0  0  0  0  0  0
    9.0805   -2.4312   -2.1494 C   0  0  0  0  0  0  0  0  0  0  0  0
    8.5437   -1.3869   -2.5510 O   0  0  0  0  0  0  0  0  0  0  0  0
    8.3461   -3.6305   -2.0505 N   0  0  0  0  0  0  0  0  0  0  0  0
    9.1072   -4.8055   -1.6822 C   0  0  0  0  0  0  0  0  0  0  0  0
    2.0005   -2.5412    4.1128 H   0  0  0  0  0  0  0  0  0  0  0  0
    1.3422   -3.8077    3.0665 H   0  0  0  0  0  0  0  0  0  0  0  0
    1.2818   -2.0970    2.5629 H   0  0  0  0  0  0  0  0  0  0  0  0
    4.0738   -2.5799    2.9475 H   0  0  0  0  0  0  0  0  0  0  0  0
    2.4898   -3.8603    0.6424 H   0  0  0  0  0  0  0  0  0  0  0  0
    4.8614   -4.5669    0.1335 H   0  0  0  0  0  0  0  0  0  0  0  0
    5.4800   -3.2540    1.1119 H   0  0  0  0  0  0  0  0  0  0  0  0
    3.8793   -2.9328   -1.5115 H   0  0  0  0  0  0  0  0  0  0  0  0
    5.0777   -0.7799    0.3025 H   0  0  0  0  0  0  0  0  0  0  0  0
    3.3555   -1.0505   -0.0086 H   0  0  0  0  0  0  0  0  0  0  0  0
    4.4097   -0.5059   -1.3118 H   0  0  0  0  0  0  0  0  0  0  0  0
    6.0509   -1.7430   -2.2511 H   0  0  0  0  0  0  0  0  0  0  0  0
    7.5645   -2.9763   -0.3652 H   0  0  0  0  0  0  0  0  0  0  0  0
    6.4810   -4.6261   -1.6200 H   0  0  0  0  0  0  0  0  0  0  0  0
    4.2727   -5.2018   -4.8843 H   0  0  0  0  0  0  0  0  0  0  0  0
    5.0155   -6.0002   -6.8051 H   0  0  0  0  0  0  0  0  0  0  0  0
    6.8885   -3.7145   -7.8208 H   0  0  0  0  0  0  0  0  0  0  0  0
    6.0100   -5.1510  -10.0380 H   0  0  0  0  0  0  0  0  0  0  0  0
    6.7274   -6.2975   -8.8825 H   0  0  0  0  0  0  0  0  0  0  0  0
    7.6020   -4.8782   -9.3791 H   0  0  0  0  0  0  0  0  0  0  0  0
    5.3088   -3.1987   -9.3028 H   0  0  0  0  0  0  0  0  0  0  0  0
    7.2187   -2.5515   -6.5540 H   0  0  0  0  0  0  0  0  0  0  0  0
    8.0237   -2.4770   -5.0183 H   0  0  0  0  0  0  0  0  0  0  0  0
    6.3236   -2.8998   -5.1419 H   0  0  0  0  0  0  0  0  0  0  0  0
    8.1024   -4.3223   -3.8858 H   0  0  0  0  0  0  0  0  0  0  0  0
    9.3682   -5.1480   -4.6303 H   0  0  0  0  0  0  0  0  0  0  0  0
   10.3878   -7.4875   -4.4181 H   0  0  0  0  0  0  0  0  0  0  0  0
    9.3977   -8.5579   -5.5120 H   0  0  0  0  0  0  0  0  0  0  0  0
    9.4201   -6.8415   -5.6862 H   0  0  0  0  0  0  0  0  0  0  0  0
    8.1201   -8.1712   -1.9675 H   0  0  0  0  0  0  0  0  0  0  0  0
    9.2557   -9.9523   -4.1485 H   0  0  0  0  0  0  0  0  0  0  0  0
   10.1572   -8.9676   -2.9843 H   0  0  0  0  0  0  0  0  0  0  0  0
    9.6876  -10.6238   -1.2540 H   0  0  0  0  0  0  0  0  0  0  0  0
    8.4273  -12.0889   -3.6450 H   0  0  0  0  0  0  0  0  0  0  0  0
    7.6865  -11.8065   -2.0651 H   0  0  0  0  0  0  0  0  0  0  0  0
    9.0314  -12.9302   -2.2086 H   0  0  0  0  0  0  0  0  0  0  0  0
   11.0294  -11.3211   -3.9165 H   0  0  0  0  0  0  0  0  0  0  0  0
   11.3575  -12.1894   -2.4029 H   0  0  0  0  0  0  0  0  0  0  0  0
   11.7504  -10.4657   -2.5553 H   0  0  0  0  0  0  0  0  0  0  0  0
    5.1634  -10.2866   -2.3847 H   0  0  0  0  0  0  0  0  0  0  0  0
    5.1109  -10.1727   -0.2205 H   0  0  0  0  0  0  0  0  0  0  0  0
    6.3021   -7.4176   -0.6902 H   0  0  0  0  0  0  0  0  0  0  0  0
    4.6022   -8.3923    1.6665 H   0  0  0  0  0  0  0  0  0  0  0  0
    5.1442   -6.7334    1.3691 H   0  0  0  0  0  0  0  0  0  0  0  0
    6.3239   -7.9822    1.7461 H   0  0  0  0  0  0  0  0  0  0  0  0
    3.3676   -8.3057   -0.5672 H   0  0  0  0  0  0  0  0  0  0  0  0
    4.2353   -7.8966   -2.0574 H   0  0  0  0  0  0  0  0  0  0  0  0
    3.9676   -6.6625   -0.8287 H   0  0  0  0  0  0  0  0  0  0  0  0
    5.2473  -11.5845    1.0541 H   0  0  0  0  0  0  0  0  0  0  0  0
    6.0757  -11.3563    2.5692 H   0  0  0  0  0  0  0  0  0  0  0  0
    6.3276  -12.8507    1.6246 H   0  0  0  0  0  0  0  0  0  0  0  0
    9.4426  -10.9357    0.8735 H   0  0  0  0  0  0  0  0  0  0  0  0
    8.3352  -13.6154    1.8147 H   0  0  0  0  0  0  0  0  0  0  0  0
    8.9555  -13.2035    0.2271 H   0  0  0  0  0  0  0  0  0  0  0  0
   11.1808  -12.6638    1.2962 H   0  0  0  0  0  0  0  0  0  0  0  0
    9.9859  -14.2279    3.6908 H   0  0  0  0  0  0  0  0  0  0  0  0
   10.4811  -12.5536    3.7821 H   0  0  0  0  0  0  0  0  0  0  0  0
   11.6889  -13.7764    3.5009 H   0  0  0  0  0  0  0  0  0  0  0  0
   10.2735  -15.5506    1.6077 H   0  0  0  0  0  0  0  0  0  0  0  0
   11.9329  -14.9653    1.4190 H   0  0  0  0  0  0  0  0  0  0  0  0
   10.7886  -14.7905    0.0833 H   0  0  0  0  0  0  0  0  0  0  0  0
    9.8299  -10.0698    4.3483 H   0  0  0  0  0  0  0  0  0  0  0  0
   10.4927   -9.3046    1.5904 H   0  0  0  0  0  0  0  0  0  0  0  0
   11.4405   -8.3427    4.3733 H   0  0  0  0  0  0  0  0  0  0  0  0
   10.2344   -7.5280    3.3560 H   0  0  0  0  0  0  0  0  0  0  0  0
   11.9101   -7.6199    2.8588 H   0  0  0  0  0  0  0  0  0  0  0  0
   13.6045  -10.5573    1.2021 H   0  0  0  0  0  0  0  0  0  0  0  0
   15.2757   -9.7227    2.0623 H   0  0  0  0  0  0  0  0  0  0  0  0
   13.3738   -9.6238    4.4319 H   0  0  0  0  0  0  0  0  0  0  0  0
   15.0047   -9.0069    4.5919 H   0  0  0  0  0  0  0  0  0  0  0  0
   14.7299  -10.6887    4.0928 H   0  0  0  0  0  0  0  0  0  0  0  0
   16.4870   -8.6357    0.8039 H   0  0  0  0  0  0  0  0  0  0  0  0
   16.9052   -6.9678    1.1662 H   0  0  0  0  0  0  0  0  0  0  0  0
   16.3188   -7.4127   -0.4729 H   0  0  0  0  0  0  0  0  0  0  0  0
   14.5299   -5.9649   -0.5081 H   0  0  0  0  0  0  0  0  0  0  0  0
   12.2607   -5.2810    0.1976 H   0  0  0  0  0  0  0  0  0  0  0  0
   12.3613   -6.2655    1.5856 H   0  0  0  0  0  0  0  0  0  0  0  0
   12.3829   -8.2620   -0.0501 H   0  0  0  0  0  0  0  0  0  0  0  0
   10.2341   -6.1239   -0.0280 H   0  0  0  0  0  0  0  0  0  0  0  0
   10.2799   -7.4835    0.9536 H   0  0  0  0  0  0  0  0  0  0  0  0
    9.9662   -7.7088   -0.7744 H   0  0  0  0  0  0  0  0  0  0  0  0
   12.1432   -5.9984   -2.0719 H   0  0  0  0  0  0  0  0  0  0  0  0
   11.7287   -7.6640   -2.4244 H   0  0  0  0  0  0  0  0  0  0  0  0
   13.3911   -7.2406   -2.0253 H   0  0  0  0  0  0  0  0  0  0  0  0
   14.8172   -2.9649    1.8915 H   0  0  0  0  0  0  0  0  0  0  0  0
   12.1465   -4.2026    1.9934 H   0  0  0  0  0  0  0  0  0  0  0  0
   11.3999   -2.1516    2.8632 H   0  0  0  0  0  0  0  0  0  0  0  0
   12.9264   -1.3207    2.4765 H   0  0  0  0  0  0  0  0  0  0  0  0
   12.3671   -3.4524    4.6125 H   0  0  0  0  0  0  0  0  0  0  0  0
   14.9957   -2.0166    3.9933 H   0  0  0  0  0  0  0  0  0  0  0  0
   14.7099   -3.7661    4.1657 H   0  0  0  0  0  0  0  0  0  0  0  0
   14.6287   -2.7253    5.5714 H   0  0  0  0  0  0  0  0  0  0  0  0
   12.8933   -0.4341    4.7598 H   0  0  0  0  0  0  0  0  0  0  0  0
   12.6727   -1.4947    6.1634 H   0  0  0  0  0  0  0  0  0  0  0  0
   11.3409   -1.2410    5.0283 H   0  0  0  0  0  0  0  0  0  0  0  0
   10.9824   -1.0590    1.4226 H   0  0  0  0  0  0  0  0  0  0  0  0
    9.5289   -1.2719    0.4495 H   0  0  0  0  0  0  0  0  0  0  0  0
   10.9089   -0.2798   -0.1116 H   0  0  0  0  0  0  0  0  0  0  0  0
   10.9650   -1.2629   -2.0631 H   0  0  0  0  0  0  0  0  0  0  0  0
   11.7112   -4.1166   -2.4863 H   0  0  0  0  0  0  0  0  0  0  0  0
   11.4423   -2.2768   -4.8592 H   0  0  0  0  0  0  0  0  0  0  0  0
   10.0010   -3.0378   -4.2623 H   0  0  0  0  0  0  0  0  0  0  0  0
   11.3674   -4.0389   -4.7484 H   0  0  0  0  0  0  0  0  0  0  0  0
   13.1973   -1.8074   -3.8077 H   0  0  0  0  0  0  0  0  0  0  0  0
   13.7400   -3.4294   -3.3821 H   0  0  0  0  0  0  0  0  0  0  0  0
   13.6129   -2.1485   -2.1704 H   0  0  0  0  0  0  0  0  0  0  0  0
    9.8552   -4.5159   -0.9501 H   0  0  0  0  0  0  0  0  0  0  0  0
    9.6810   -5.1776   -2.5348 H   0  0  0  0  0  0  0  0  0  0  0  0
    8.4764   -5.6025   -1.2895 H   0  0  0  0  0  0  0  0  0  0  0  0
  1  2  1  0  0  0  0
  1 86  1  0  0  0  0
  1 87  1  0  0  0  0
  1 88  1  0  0  0  0
  2  3  2  0  0  0  0
  2 89  1  0  0  0  0
  3  4  1  0  0  0  0
  3 90  1  0  0  0  0
  4  5  1  0  0  0  0
  4 91  1  0  0  0  0
  4 92  1  0  0  0  0
  5  6  1  0  0  0  0
  5  7  1  0  0  0  0
  5 93  1  6  0  0  0
  6 94  1  0  0  0  0
  6 95  1  0  0  0  0
  6 96  1  0  0  0  0
  7  8  1  0  0  0  0
  7  9  1  0  0  0  0
  7 97  1  6  0  0  0
  8 98  1  0  0  0  0
  9 10  1  0  0  0  0
  9 84  1  0  0  0  0
  9 99  1  1  0  0  0
 10 11  2  0  0  0  0
 10 12  1  0  0  0  0
 12 13  1  0  0  0  0
 12100  1  0  0  0  0
 13 14  1  0  0  0  0
 13 17  1  0  0  0  0
 13101  1  6  0  0  0
 14 15  1  0  0  0  0
 14 16  1  0  0  0  0
 14102  1  1  0  0  0
 15103  1  0  0  0  0
 15104  1  0  0  0  0
 15105  1  0  0  0  0
 16106  1  0  0  0  0
 17 18  2  0  0  0  0
 17 19  1  0  0  0  0
 19 20  1  0  0  0  0
 19 21  1  0  0  0  0
 20107  1  0  0  0  0
 20108  1  0  0  0  0
 20109  1  0  0  0  0
 21 22  1  0  0  0  0
 21110  1  0  0  0  0
 21111  1  0  0  0  0
 22 23  2  0  0  0  0
 22 24  1  0  0  0  0
 24 25  1  0  0  0  0
 24 26  1  0  0  0  0
 25112  1  0  0  0  0
 25113  1  0  0  0  0
 25114  1  0  0  0  0
 26 31  1  0  0  0  0
 26 27  1  0  0  0  0
 26115  1  1  0  0  0
 27 28  1  0  0  0  0
 27116  1  0  0  0  0
 27117  1  0  0  0  0
 28 29  1  0  0  0  0
 28 30  1  0  0  0  0
 28118  1  0  0  0  0
 29119  1  0  0  0  0
 29120  1  0  0  0  0
 29121  1  0  0  0  0
 30122  1  0  0  0  0
 30123  1  0  0  0  0
 30124  1  0  0  0  0
 31 32  2  0  0  0  0
 31 33  1  0  0  0  0
 33 34  1  0  0  0  0
 33125  1  0  0  0  0
 34 38  1  0  0  0  0
 34 35  1  0  0  0  0
 34126  1  1  0  0  0
 35 36  1  0  0  0  0
 35 37  1  0  0  0  0
 35127  1  0  0  0  0
 36128  1  0  0  0  0
 36129  1  0  0  0  0
 36130  1  0  0  0  0
 37131  1  0  0  0  0
 37132  1  0  0  0  0
 37133  1  0  0  0  0
 38 39  2  0  0  0  0
 38 40  1  0  0  0  0
 40 41  1  0  0  0  0
 40 42  1  0  0  0  0
 41134  1  0  0  0  0
 41135  1  0  0  0  0
 41136  1  0  0  0  0
 42 47  1  0  0  0  0
 42 43  1  0  0  0  0
 42137  1  6  0  0  0
 43 44  1  0  0  0  0
 43138  1  0  0  0  0
 43139  1  0  0  0  0
 44 45  1  0  0  0  0
 44 46  1  0  0  0  0
 44140  1  0  0  0  0
 45141  1  0  0  0  0
 45142  1  0  0  0  0
 45143  1  0  0  0  0
 46144  1  0  0  0  0
 46145  1  0  0  0  0
 46146  1  0  0  0  0
 47 48  2  0  0  0  0
 47 49  1  0  0  0  0
 49 50  1  0  0  0  0
 49147  1  0  0  0  0
 50 51  1  0  0  0  0
 50 52  1  0  0  0  0
 50148  1  6  0  0  0
 51149  1  0  0  0  0
 51150  1  0  0  0  0
 51151  1  0  0  0  0
 52 53  2  0  0  0  0
 52 54  1  0  0  0  0
 54 55  1  0  0  0  0
 54152  1  0  0  0  0
 55 57  1  0  0  0  0
 55 56  1  0  0  0  0
 55153  1  6  0  0  0
 56154  1  0  0  0  0
 56155  1  0  0  0  0
 56156  1  0  0  0  0
 57 58  2  0  0  0  0
 57 59  1  0  0  0  0
 59 60  1  0  0  0  0
 59 61  1  0  0  0  0
 60157  1  0  0  0  0
 60158  1  0  0  0  0
 60159  1  0  0  0  0
 61 62  1  0  0  0  0
 61 66  1  0  0  0  0
 61160  1  6  0  0  0
 62 63  1  0  0  0  0
 62161  1  0  0  0  0
 62162  1  0  0  0  0
 63 64  1  0  0  0  0
 63 65  1  0  0  0  0
 63163  1  0  0  0  0
 64164  1  0  0  0  0
 64165  1  0  0  0  0
 64166  1  0  0  0  0
 65167  1  0  0  0  0
 65168  1  0  0  0  0
 65169  1  0  0  0  0
 66 67  2  0  0  0  0
 66 68  1  0  0  0  0
 68 69  1  0  0  0  0
 68170  1  0  0  0  0
 69 70  1  0  0  0  0
 69 74  1  0  0  0  0
 69171  1  1  0  0  0
 70 71  1  0  0  0  0
 70172  1  0  0  0  0
 70173  1  0  0  0  0
 71 72  1  0  0  0  0
 71 73  1  0  0  0  0
 71174  1  0  0  0  0
 72175  1  0  0  0  0
 72176  1  0  0  0  0
 72177  1  0  0  0  0
 73178  1  0  0  0  0
 73179  1  0  0  0  0
 73180  1  0  0  0  0
 74 75  2  0  0  0  0
 74 76  1  0  0  0  0
 76 77  1  0  0  0  0
 76 78  1  0  0  0  0
 77181  1  0  0  0  0
 77182  1  0  0  0  0
 77183  1  0  0  0  0
 78 79  1  0  0  0  0
 78 82  1  0  0  0  0
 78184  1  6  0  0  0
 79 80  1  0  0  0  0
 79 81  1  0  0  0  0
 79185  1  0  0  0  0
 80186  1  0  0  0  0
 80187  1  0  0  0  0
 80188  1  0  0  0  0
 81189  1  0  0  0  0
 81190  1  0  0  0  0
 81191  1  0  0  0  0
 82 83  2  0  0  0  0
 82 84  1  0  0  0  0
 84 85  1  0  0  0  0
 85192  1  0  0  0  0
 85193  1  0  0  0  0
 85194  1  0  0  0  0
M  END
>  <Energy>
723.07

$$$$