25223199
  -OEChem-03242010103D

 84 89  0     1  0  0  0  0  0999 V2000
   12.3131   -2.0352   -2.3516 O   0  0  0  0  0  0  0  0  0  0  0  0
   13.6107   -1.1524   -0.0593 O   0  0  0  0  0  0  0  0  0  0  0  0
   -1.2921   -0.5247   -0.2618 O   0  0  0  0  0  0  0  0  0  0  0  0
   -7.2262    2.6539   -1.5888 O   0  0  0  0  0  0  0  0  0  0  0  0
   -5.4164   -1.8004    0.3820 O   0  0  0  0  0  0  0  0  0  0  0  0
   -6.9231    4.0732    0.1980 O   0  0  0  0  0  0  0  0  0  0  0  0
    7.3314    0.0072    0.5570 N   0  0  2  0  0  0  0  0  0  0  0  0
   -0.3680    1.5037    0.4863 N   0  0  0  0  0  0  0  0  0  0  0  0
   -6.2784    0.3414   -0.0602 N   0  0  0  0  0  0  0  0  0  0  0  0
   -9.2349   -3.2684    1.1370 N   0  0  0  0  0  0  0  0  0  0  0  0
    8.0221    1.0809    1.2819 C   0  0  0  0  0  0  0  0  0  0  0  0
    8.0381   -0.2944   -0.7005 C   0  0  0  0  0  0  0  0  0  0  0  0
    9.4023    0.5970    1.7382 C   0  0  0  0  0  0  0  0  0  0  0  0
    9.5163   -0.5468   -0.5103 C   0  0  0  0  0  0  0  0  0  0  0  0
   10.1781   -0.0796    0.6381 C   0  0  0  0  0  0  0  0  0  0  0  0
    5.9423    0.3749    0.2848 C   0  0  0  0  0  0  0  0  0  0  0  0
    5.0681    0.1671    1.5218 C   0  0  0  0  0  0  0  0  0  0  0  0
   10.2493   -1.1940   -1.5142 C   0  0  0  0  0  0  0  0  0  0  0  0
   11.5542   -0.2990    0.7828 C   0  0  0  0  0  0  0  0  0  0  0  0
   11.6210   -1.3989   -1.3656 C   0  0  0  0  0  0  0  0  0  0  0  0
   12.2721   -0.9538   -0.2175 C   0  0  0  0  0  0  0  0  0  0  0  0
    3.6283    0.5217    1.2480 C   0  0  0  0  0  0  0  0  0  0  0  0
    3.1767    1.8237    1.4634 C   0  0  0  0  0  0  0  0  0  0  0  0
    2.7480   -0.4530    0.7782 C   0  0  0  0  0  0  0  0  0  0  0  0
    1.8448    2.1511    1.2090 C   0  0  0  0  0  0  0  0  0  0  0  0
    1.4160   -0.1257    0.5240 C   0  0  0  0  0  0  0  0  0  0  0  0
    0.9644    1.1763    0.7395 C   0  0  0  0  0  0  0  0  0  0  0  0
   12.8690   -1.2210   -3.3821 C   0  0  0  0  0  0  0  0  0  0  0  0
   14.2002   -0.6662    1.1449 C   0  0  0  0  0  0  0  0  0  0  0  0
   -1.3879    0.6659    0.0163 C   0  0  0  0  0  0  0  0  0  0  0  0
   -2.7221    1.3052   -0.1277 C   0  0  0  0  0  0  0  0  0  0  0  0
   -3.8799    0.5335   -0.0297 C   0  0  0  0  0  0  0  0  0  0  0  0
   -5.1319    1.1340   -0.1624 C   0  0  0  0  0  0  0  0  0  0  0  0
   -2.8163    2.6776   -0.3588 C   0  0  0  0  0  0  0  0  0  0  0  0
   -5.2261    2.5064   -0.3937 C   0  0  0  0  0  0  0  0  0  0  0  0
   -4.0683    3.2781   -0.4919 C   0  0  0  0  0  0  0  0  0  0  0  0
   -7.7306   -1.5890    0.2742 C   0  0  0  0  0  0  0  0  0  0  0  0
   -6.3545   -1.0323    0.1970 C   0  0  0  0  0  0  0  0  0  0  0  0
  -10.0741   -1.5406   -0.3180 C   0  0  0  0  0  0  0  0  0  0  0  0
   -8.7852   -0.9977   -0.4065 C   0  0  0  0  0  0  0  0  0  0  0  0
   -6.5182    3.1653   -0.5371 C   0  0  0  0  0  0  0  0  0  0  0  0
  -10.2564   -2.6925    0.4755 C   0  0  0  0  0  0  0  0  0  0  0  0
   -8.0066   -2.7131    1.0257 C   0  0  0  0  0  0  0  0  0  0  0  0
  -11.1630   -0.9653   -0.9947 C   0  0  0  0  0  0  0  0  0  0  0  0
  -11.5369   -3.2316    0.5626 C   0  0  0  0  0  0  0  0  0  0  0  0
  -12.4329   -1.5253   -0.8896 C   0  0  0  0  0  0  0  0  0  0  0  0
  -12.6197   -2.6600   -0.1101 C   0  0  0  0  0  0  0  0  0  0  0  0
   -8.5167    3.2230   -1.8341 C   0  0  0  0  0  0  0  0  0  0  0  0
    7.4721    1.3904    2.1767 H   0  0  0  0  0  0  0  0  0  0  0  0
    8.1277    1.9720    0.6477 H   0  0  0  0  0  0  0  0  0  0  0  0
    7.9259    0.5310   -1.4164 H   0  0  0  0  0  0  0  0  0  0  0  0
    7.5909   -1.1930   -1.1441 H   0  0  0  0  0  0  0  0  0  0  0  0
    9.2850   -0.1184    2.5622 H   0  0  0  0  0  0  0  0  0  0  0  0
    9.9684    1.4558    2.1183 H   0  0  0  0  0  0  0  0  0  0  0  0
    5.8649    1.4045   -0.0899 H   0  0  0  0  0  0  0  0  0  0  0  0
    5.5402   -0.2679   -0.5107 H   0  0  0  0  0  0  0  0  0  0  0  0
    5.4161    0.7676    2.3703 H   0  0  0  0  0  0  0  0  0  0  0  0
    5.1272   -0.8776    1.8557 H   0  0  0  0  0  0  0  0  0  0  0  0
    9.7473   -1.5393   -2.4152 H   0  0  0  0  0  0  0  0  0  0  0  0
   12.0049    0.0654    1.7003 H   0  0  0  0  0  0  0  0  0  0  0  0
    3.8538    2.5922    1.8271 H   0  0  0  0  0  0  0  0  0  0  0  0
    3.0897   -1.4702    0.6050 H   0  0  0  0  0  0  0  0  0  0  0  0
    1.5072    3.1701    1.3809 H   0  0  0  0  0  0  0  0  0  0  0  0
    0.7976   -0.9349    0.1622 H   0  0  0  0  0  0  0  0  0  0  0  0
   13.3953   -1.8712   -4.0863 H   0  0  0  0  0  0  0  0  0  0  0  0
   13.5846   -0.5056   -2.9645 H   0  0  0  0  0  0  0  0  0  0  0  0
   12.0774   -0.6901   -3.9203 H   0  0  0  0  0  0  0  0  0  0  0  0
   15.2672   -0.9086    1.1013 H   0  0  0  0  0  0  0  0  0  0  0  0
   13.7955   -1.1745    2.0267 H   0  0  0  0  0  0  0  0  0  0  0  0
   14.1258    0.4241    1.2197 H   0  0  0  0  0  0  0  0  0  0  0  0
   -0.6047    2.4637    0.7198 H   0  0  0  0  0  0  0  0  0  0  0  0
   -3.7400   -0.5212    0.1526 H   0  0  0  0  0  0  0  0  0  0  0  0
   -1.9437    3.3119   -0.4811 H   0  0  0  0  0  0  0  0  0  0  0  0
   -4.1277    4.3470   -0.6815 H   0  0  0  0  0  0  0  0  0  0  0  0
   -7.1516    0.8531   -0.1366 H   0  0  0  0  0  0  0  0  0  0  0  0
   -8.6336   -0.1312   -1.0452 H   0  0  0  0  0  0  0  0  0  0  0  0
   -7.2344   -3.2277    1.5894 H   0  0  0  0  0  0  0  0  0  0  0  0
  -11.0281   -0.0767   -1.6076 H   0  0  0  0  0  0  0  0  0  0  0  0
  -11.7097   -4.1202    1.1671 H   0  0  0  0  0  0  0  0  0  0  0  0
  -13.2719   -1.0779   -1.4138 H   0  0  0  0  0  0  0  0  0  0  0  0
  -13.6071   -3.1037   -0.0226 H   0  0  0  0  0  0  0  0  0  0  0  0
   -8.9521    2.7179   -2.7002 H   0  0  0  0  0  0  0  0  0  0  0  0
   -8.4228    4.2898   -2.0574 H   0  0  0  0  0  0  0  0  0  0  0  0
   -9.1682    3.0639   -0.9697 H   0  0  0  0  0  0  0  0  0  0  0  0
  1 20  1  0  0  0  0
  1 28  1  0  0  0  0
  2 21  1  0  0  0  0
  2 29  1  0  0  0  0
  3 30  2  0  0  0  0
  4 41  1  0  0  0  0
  4 48  1  0  0  0  0
  5 38  2  0  0  0  0
  6 41  2  0  0  0  0
  7 11  1  0  0  0  0
  7 12  1  0  0  0  0
  7 16  1  0  0  0  0
  8 27  1  0  0  0  0
  8 30  1  0  0  0  0
  8 71  1  0  0  0  0
  9 33  1  0  0  0  0
  9 38  1  0  0  0  0
  9 75  1  0  0  0  0
 10 42  1  0  0  0  0
 10 43  2  0  0  0  0
 11 13  1  0  0  0  0
 11 49  1  0  0  0  0
 11 50  1  0  0  0  0
 12 14  1  0  0  0  0
 12 51  1  0  0  0  0
 12 52  1  0  0  0  0
 13 15  1  0  0  0  0
 13 53  1  0  0  0  0
 13 54  1  0  0  0  0
 14 15  1  0  0  0  0
 14 18  2  0  0  0  0
 15 19  2  0  0  0  0
 16 17  1  0  0  0  0
 16 55  1  0  0  0  0
 16 56  1  0  0  0  0
 17 22  1  0  0  0  0
 17 57  1  0  0  0  0
 17 58  1  0  0  0  0
 18 20  1  0  0  0  0
 18 59  1  0  0  0  0
 19 21  1  0  0  0  0
 19 60  1  0  0  0  0
 20 21  2  0  0  0  0
 22 23  2  0  0  0  0
 22 24  1  0  0  0  0
 23 25  1  0  0  0  0
 23 61  1  0  0  0  0
 24 26  2  0  0  0  0
 24 62  1  0  0  0  0
 25 27  2  0  0  0  0
 25 63  1  0  0  0  0
 26 27  1  0  0  0  0
 26 64  1  0  0  0  0
 28 65  1  0  0  0  0
 28 66  1  0  0  0  0
 28 67  1  0  0  0  0
 29 68  1  0  0  0  0
 29 69  1  0  0  0  0
 29 70  1  0  0  0  0
 30 31  1  0  0  0  0
 31 32  2  0  0  0  0
 31 34  1  0  0  0  0
 32 33  1  0  0  0  0
 32 72  1  0  0  0  0
 33 35  2  0  0  0  0
 34 36  2  0  0  0  0
 34 73  1  0  0  0  0
 35 36  1  0  0  0  0
 35 41  1  0  0  0  0
 36 74  1  0  0  0  0
 37 38  1  0  0  0  0
 37 40  2  0  0  0  0
 37 43  1  0  0  0  0
 39 40  1  0  0  0  0
 39 42  1  0  0  0  0
 39 44  2  0  0  0  0
 40 76  1  0  0  0  0
 42 45  2  0  0  0  0
 43 77  1  0  0  0  0
 44 46  1  0  0  0  0
 44 78  1  0  0  0  0
 45 47  1  0  0  0  0
 45 79  1  0  0  0  0
 46 47  2  0  0  0  0
 46 80  1  0  0  0  0
 47 81  1  0  0  0  0
 48 82  1  0  0  0  0
 48 83  1  0  0  0  0
 48 84  1  0  0  0  0
M  END
> <PUBCHEM_COMPOUND_CID>
25223199

> <PUBCHEM_CONFORMER_RMSD>
1.4

> <PUBCHEM_CONFORMER_DIVERSEORDER>
4
10
50
56
15
55
40
23
18
57
13
9
6
52
30
27
41
44
20
59
11
8
35
14
58
26
49
34
46
54
16
12
47
38
42
36
45
37
51
24
22
53
29
32
43
48
19
17
3
25
21
31
28
7
39
1
33
5
2

> <PUBCHEM_MMFF94_PARTIAL_CHARGES>
64
1 -0.36
10 -0.62
11 0.27
12 0.41
13 0.14
14 -0.14
15 -0.14
16 0.27
17 0.14
18 -0.15
19 -0.15
2 -0.36
20 0.08
21 0.08
22 -0.14
23 -0.15
24 -0.15
25 -0.15
26 -0.15
27 0.12
28 0.28
29 0.28
3 -0.57
30 0.54
31 0.09
32 -0.15
33 0.12
34 -0.15
35 0.09
36 -0.15
37 0.09
38 0.54
4 -0.43
40 -0.15
41 0.63
42 0.31
43 0.16
44 -0.15
45 -0.15
46 -0.15
47 -0.15
48 0.28
5 -0.57
59 0.15
6 -0.57
60 0.15
61 0.15
62 0.15
63 0.15
64 0.15
7 -0.81
71 0.37
72 0.15
73 0.15
74 0.15
75 0.37
76 0.15
77 0.15
78 0.15
79 0.15
8 -0.55
80 0.15
81 0.15
9 -0.55

> <PUBCHEM_EFFECTIVE_ROTOR_COUNT>
13.8

> <PUBCHEM_PHARMACOPHORE_FEATURES>
15
1 1 acceptor
1 10 acceptor
1 2 acceptor
1 3 acceptor
1 5 acceptor
1 6 acceptor
1 7 cation
1 8 donor
1 9 donor
6 10 37 39 40 42 43 rings
6 14 15 18 19 20 21 rings
6 22 23 24 25 26 27 rings
6 31 32 33 34 35 36 rings
6 39 42 44 45 46 47 rings
6 7 11 12 13 14 15 rings

> <PUBCHEM_HEAVY_ATOM_COUNT>
48

> <PUBCHEM_ATOM_DEF_STEREO_COUNT>
0

> <PUBCHEM_ATOM_UDEF_STEREO_COUNT>
0

> <PUBCHEM_BOND_DEF_STEREO_COUNT>
0

> <PUBCHEM_BOND_UDEF_STEREO_COUNT>
0

> <PUBCHEM_ISOTOPIC_ATOM_COUNT>
0

> <PUBCHEM_COMPONENT_COUNT>
1

> <PUBCHEM_CACTVS_TAUTO_COUNT>
6

> <PUBCHEM_CONFORMER_ID>
0180E01F00000004

> <PUBCHEM_MMFF94_ENERGY>
177.58

> <PUBCHEM_FEATURE_SELFOVERLAP>
76.185

> <PUBCHEM_SHAPE_FINGERPRINT>
11146346 171 18343581858579243992
12013929 94 18410292514501506131
12089408 11 17458060440156346336
12539745 222 18202284711333853785
131240 100 18341609339989992320
15061470 23 9727631710003015778
15065858 18 18343016676245089896
15219723 13 16128662938203413134
15247644 1 18130507522198551383
20105231 36 18273497883813190242
21792961 116 17917707994408220385
3092352 35 17967810541043257234
44389302 135 17346600802701207279
4760202 70 17167857544122594730
5028188 123 18187082823652896092
54728670 133 16343715284120620825
636775 8 18334576858748321099

> <PUBCHEM_SHAPE_MULTIPOLES>
932.68
69.18
3.73
1.65
108.25
1.82
-0.99
-57.96
-18.86
-15.88
-0.51
5.67
-0.26
7.23

> <PUBCHEM_SHAPE_SELFOVERLAP>
2044.58

> <PUBCHEM_SHAPE_VOLUME>
502.3

> <PUBCHEM_COORDINATE_TYPE>
2
5
10

$$$$