2247
  -OEChem-03242010103D

 65 69  0     0  0  0  0  0  0999 V2000
    0.1632    4.6534   -0.4452 F   0  0  0  0  0  0  0  0  0  0  0  0
    8.2678    1.5113   -0.2725 O   0  0  0  0  0  0  0  0  0  0  0  0
    1.5525   -2.3912    0.3812 N   0  0  0  0  0  0  0  0  0  0  0  0
   -2.0196   -1.7262    0.8237 N   0  0  0  0  0  0  0  0  0  0  0  0
   -3.7509   -0.1400    0.7080 N   0  0  0  0  0  0  0  0  0  0  0  0
   -3.8975   -1.8783   -0.6694 N   0  0  0  0  0  0  0  0  0  0  0  0
   -1.3348   -2.9456    0.4394 C   0  0  0  0  0  0  0  0  0  0  0  0
   -0.5615   -2.7285   -0.8627 C   0  0  0  0  0  0  0  0  0  0  0  0
   -0.3852   -3.3908    1.5536 C   0  0  0  0  0  0  0  0  0  0  0  0
    0.6772   -1.8486   -0.6660 C   0  0  0  0  0  0  0  0  0  0  0  0
    0.8468   -2.4869    1.6657 C   0  0  0  0  0  0  0  0  0  0  0  0
    2.7561   -1.5711    0.5183 C   0  0  0  0  0  0  0  0  0  0  0  0
    3.5697   -1.5717   -0.7764 C   0  0  0  0  0  0  0  0  0  0  0  0
   -3.1899   -1.3033    0.2709 C   0  0  0  0  0  0  0  0  0  0  0  0
    4.8252   -0.7476   -0.6414 C   0  0  0  0  0  0  0  0  0  0  0  0
   -4.9083    0.0522   -0.0020 C   0  0  0  0  0  0  0  0  0  0  0  0
   -3.2369    0.7433    1.7322 C   0  0  0  0  0  0  0  0  0  0  0  0
   -4.9773   -1.0459   -0.8550 C   0  0  0  0  0  0  0  0  0  0  0  0
   -5.8713    1.0615    0.0276 C   0  0  0  0  0  0  0  0  0  0  0  0
   -2.3269    1.7901    1.1486 C   0  0  0  0  0  0  0  0  0  0  0  0
    4.7916    0.6015   -0.9592 C   0  0  0  0  0  0  0  0  0  0  0  0
    5.9928   -1.3533   -0.2023 C   0  0  0  0  0  0  0  0  0  0  0  0
   -6.0646   -1.1603   -1.7376 C   0  0  0  0  0  0  0  0  0  0  0  0
   -6.9466    0.9316   -0.8574 C   0  0  0  0  0  0  0  0  0  0  0  0
   -7.0435   -0.1586   -1.7252 C   0  0  0  0  0  0  0  0  0  0  0  0
    5.9535    1.3635   -0.8350 C   0  0  0  0  0  0  0  0  0  0  0  0
    7.1545   -0.5914   -0.0779 C   0  0  0  0  0  0  0  0  0  0  0  0
   -2.8591    3.0001    0.7250 C   0  0  0  0  0  0  0  0  0  0  0  0
   -0.9671    1.5315    1.0423 C   0  0  0  0  0  0  0  0  0  0  0  0
    7.1350    0.7669   -0.3943 C   0  0  0  0  0  0  0  0  0  0  0  0
   -2.0151    3.9704    0.1846 C   0  0  0  0  0  0  0  0  0  0  0  0
   -0.1233    2.5018    0.5020 C   0  0  0  0  0  0  0  0  0  0  0  0
   -0.6472    3.7213    0.0731 C   0  0  0  0  0  0  0  0  0  0  0  0
    9.4407    0.8389    0.1833 C   0  0  0  0  0  0  0  0  0  0  0  0
   -2.0784   -3.7389    0.2905 H   0  0  0  0  0  0  0  0  0  0  0  0
   -1.2030   -2.2850   -1.6335 H   0  0  0  0  0  0  0  0  0  0  0  0
   -0.2417   -3.7058   -1.2488 H   0  0  0  0  0  0  0  0  0  0  0  0
   -0.0534   -4.4174    1.3493 H   0  0  0  0  0  0  0  0  0  0  0  0
   -0.9085   -3.4135    2.5173 H   0  0  0  0  0  0  0  0  0  0  0  0
    1.1679   -1.8384   -1.6425 H   0  0  0  0  0  0  0  0  0  0  0  0
    0.3773   -0.8186   -0.4406 H   0  0  0  0  0  0  0  0  0  0  0  0
    1.5134   -2.9248    2.4191 H   0  0  0  0  0  0  0  0  0  0  0  0
    0.5611   -1.4944    2.0345 H   0  0  0  0  0  0  0  0  0  0  0  0
    3.3827   -1.9766    1.3236 H   0  0  0  0  0  0  0  0  0  0  0  0
    2.4999   -0.5423    0.8066 H   0  0  0  0  0  0  0  0  0  0  0  0
   -1.5801   -1.2013    1.5711 H   0  0  0  0  0  0  0  0  0  0  0  0
    3.8329   -2.5989   -1.0622 H   0  0  0  0  0  0  0  0  0  0  0  0
    3.0177   -1.1556   -1.6250 H   0  0  0  0  0  0  0  0  0  0  0  0
   -4.0884    1.2132    2.2397 H   0  0  0  0  0  0  0  0  0  0  0  0
   -2.7365    0.1584    2.5113 H   0  0  0  0  0  0  0  0  0  0  0  0
   -5.8152    1.9027    0.7074 H   0  0  0  0  0  0  0  0  0  0  0  0
    3.8760    1.0765   -1.3002 H   0  0  0  0  0  0  0  0  0  0  0  0
    6.0163   -2.4102    0.0479 H   0  0  0  0  0  0  0  0  0  0  0  0
   -6.1490   -2.0036   -2.4156 H   0  0  0  0  0  0  0  0  0  0  0  0
   -7.7235    1.6922   -0.8668 H   0  0  0  0  0  0  0  0  0  0  0  0
   -7.8917   -0.2324   -2.4010 H   0  0  0  0  0  0  0  0  0  0  0  0
    5.9318    2.4214   -1.0819 H   0  0  0  0  0  0  0  0  0  0  0  0
    8.0368   -1.1175    0.2703 H   0  0  0  0  0  0  0  0  0  0  0  0
   -3.9175    3.2186    0.8175 H   0  0  0  0  0  0  0  0  0  0  0  0
   -0.5333    0.6031    1.3933 H   0  0  0  0  0  0  0  0  0  0  0  0
   -2.4221    4.9213   -0.1464 H   0  0  0  0  0  0  0  0  0  0  0  0
    0.9426    2.3096    0.4200 H   0  0  0  0  0  0  0  0  0  0  0  0
    9.7566    0.0600   -0.5190 H   0  0  0  0  0  0  0  0  0  0  0  0
   10.2450    1.5810    0.2204 H   0  0  0  0  0  0  0  0  0  0  0  0
    9.3140    0.4538    1.2008 H   0  0  0  0  0  0  0  0  0  0  0  0
  1 33  1  0  0  0  0
  2 30  1  0  0  0  0
  2 34  1  0  0  0  0
  3 10  1  0  0  0  0
  3 11  1  0  0  0  0
  3 12  1  0  0  0  0
  4  7  1  0  0  0  0
  4 14  1  0  0  0  0
  4 46  1  0  0  0  0
  5 14  1  0  0  0  0
  5 16  1  0  0  0  0
  5 17  1  0  0  0  0
  6 14  2  0  0  0  0
  6 18  1  0  0  0  0
  7  8  1  0  0  0  0
  7  9  1  0  0  0  0
  7 35  1  0  0  0  0
  8 10  1  0  0  0  0
  8 36  1  0  0  0  0
  8 37  1  0  0  0  0
  9 11  1  0  0  0  0
  9 38  1  0  0  0  0
  9 39  1  0  0  0  0
 10 40  1  0  0  0  0
 10 41  1  0  0  0  0
 11 42  1  0  0  0  0
 11 43  1  0  0  0  0
 12 13  1  0  0  0  0
 12 44  1  0  0  0  0
 12 45  1  0  0  0  0
 13 15  1  0  0  0  0
 13 47  1  0  0  0  0
 13 48  1  0  0  0  0
 15 21  2  0  0  0  0
 15 22  1  0  0  0  0
 16 18  1  0  0  0  0
 16 19  2  0  0  0  0
 17 20  1  0  0  0  0
 17 49  1  0  0  0  0
 17 50  1  0  0  0  0
 18 23  2  0  0  0  0
 19 24  1  0  0  0  0
 19 51  1  0  0  0  0
 20 28  2  0  0  0  0
 20 29  1  0  0  0  0
 21 26  1  0  0  0  0
 21 52  1  0  0  0  0
 22 27  2  0  0  0  0
 22 53  1  0  0  0  0
 23 25  1  0  0  0  0
 23 54  1  0  0  0  0
 24 25  2  0  0  0  0
 24 55  1  0  0  0  0
 25 56  1  0  0  0  0
 26 30  2  0  0  0  0
 26 57  1  0  0  0  0
 27 30  1  0  0  0  0
 27 58  1  0  0  0  0
 28 31  1  0  0  0  0
 28 59  1  0  0  0  0
 29 32  2  0  0  0  0
 29 60  1  0  0  0  0
 31 33  2  0  0  0  0
 31 61  1  0  0  0  0
 32 33  1  0  0  0  0
 32 62  1  0  0  0  0
 34 63  1  0  0  0  0
 34 64  1  0  0  0  0
 34 65  1  0  0  0  0
M  END
> <PUBCHEM_COMPOUND_CID>
2247

> <PUBCHEM_CONFORMER_RMSD>
1

> <PUBCHEM_CONFORMER_DIVERSEORDER>
1
24
38
352
199
228
261
69
370
338
302
184
409
82
357
249
145
168
365
262
75
252
339
440
191
270
87
152
162
429
229
311
301
254
398
29
434
273
180
425
160
130
354
423
439
332
264
131
235
387
173
275
260
353
74
81
274
83
258
426
324
386
441
443
166
331
188
246
163
203
297
285
157
388
280
291
172
310
53
288
123
424
21
385
33
217
435
89
279
140
143
135
272
134
248
348
58
13
428
278
253
158
444
289
383
299
415
318
294
315
186
230
76
55
128
64
197
290
410
336
371
427
432
373
227
169
193
141
147
344
115
243
201
179
56
307
406
350
286
208
79
419
151
263
200
28
271
207
436
219
221
281
192
164
20
23
320
98
381
133
153
334
195
138
282
379
78
149
314
347
400
296
167
194
268
104
213
165
206
341
155
100
66
50
380
368
255
327
403
438
121
9
161
190
31
129
376
103
114
364
244
4
283
125
175
182
345
284
15
342
111
313
317
142
295
185
122
433
237
411
256
174
234
402
323
300
62
96
378
137
171
210
358
326
407
107
49
375
257
110
340
106
328
224
170
113
51
94
242
218
73
178
22
216
34
401
124
445
238
136
351
269
225
14
437
366
367
414
223
148
198
25
396
359
304
233
97
120
146
391
68
417
126
77
71
8
361
420
356
337
266
150
60
277
442
330
35
292
187
382
52
236
177
276
395
404
226
293
392
108
222
189
26
312
422
397
116
132
343
7
245
369
212
91
321
36
95
390
306
72
209
325
102
305
5
27
308
109
220
251
84
399
19
232
59
57
92
112
32
10
393
355
413
408
374
394
329
159
47
349
17
335
430
144
346
241
333
39
421
316
303
154
319
65
377
176
240
11
416
431
360
43
30
322
41
101
211
418
2
250
372
119
45
204
259
196
67
48
384
363
42
37
389
287
93
70
86
183
117
85
156
214
362
231
298
247
54
3
405
80
12
181
239
99
267
127
139
105
61
6
88
44
205
46
18
202
63
265
40
412
309
16
215
118
90

> <PUBCHEM_MMFF94_PARTIAL_CHARGES>
45
1 -0.19
10 0.27
11 0.27
12 0.27
13 0.14
14 0.27
15 -0.14
16 -0.15
17 0.4
18 0.23
19 -0.15
2 -0.36
20 -0.14
21 -0.15
22 -0.15
23 -0.15
24 -0.15
25 -0.15
26 -0.15
27 -0.15
28 -0.15
29 -0.15
3 -0.81
30 0.08
31 -0.15
32 -0.15
33 0.19
34 0.28
4 -0.85
46 0.4
5 0.05
51 0.15
52 0.15
53 0.15
54 0.15
55 0.15
56 0.15
57 0.15
58 0.15
59 0.15
6 -0.57
60 0.15
61 0.15
62 0.15
7 0.37

> <PUBCHEM_EFFECTIVE_ROTOR_COUNT>
9.2

> <PUBCHEM_PHARMACOPHORE_FEATURES>
9
1 2 acceptor
1 3 cation
1 4 donor
4 4 5 6 14 cation
5 5 6 14 16 18 rings
6 15 21 22 26 27 30 rings
6 16 18 19 23 24 25 rings
6 20 28 29 31 32 33 rings
6 3 7 8 9 10 11 rings

> <PUBCHEM_HEAVY_ATOM_COUNT>
34

> <PUBCHEM_ATOM_DEF_STEREO_COUNT>
0

> <PUBCHEM_ATOM_UDEF_STEREO_COUNT>
0

> <PUBCHEM_BOND_DEF_STEREO_COUNT>
0

> <PUBCHEM_BOND_UDEF_STEREO_COUNT>
0

> <PUBCHEM_ISOTOPIC_ATOM_COUNT>
0

> <PUBCHEM_COMPONENT_COUNT>
1

> <PUBCHEM_CACTVS_TAUTO_COUNT>
2

> <PUBCHEM_CONFORMER_ID>
000008C700000001

> <PUBCHEM_MMFF94_ENERGY>
79.9811

> <PUBCHEM_FEATURE_SELFOVERLAP>
45.781

> <PUBCHEM_SHAPE_FINGERPRINT>
10032420 55 18336255748120788865
10087517 78 18412829101450139154
10483366 6 18409725175529611217
10670039 82 18343019956798263842
10871710 139 18267589009878709163
11146851 88 18260554445900562644
11513181 2 18055925298437534551
11621639 179 17971736793908378469
13911987 19 18336255770318649447
14068700 675 18060697303994125713
14394314 77 18339368470214311113
14705955 166 14056987296211664399
14840074 17 18271808987008739073
14931854 50 18411983537662675022
15276724 80 18343581811608520502
15289351 153 18410854340524293570
15575132 122 18340485548252156391
15961568 22 18341897359309529535
17492 54 18410854356733407147
17899979 19 18334575746209802117
19246450 95 8213879119207132343
19611394 137 18117291452377629643
21049683 271 18335416881964748245
21304303 64 18262242123777943549
21344244 246 17982722267540621559
23559900 14 18269831072754277289
3918712 181 18410005542684334576
4280585 95 18412545444134709261
4394409 98 18186523219520833013
563151 74 15791727464730705442
6009941 240 17530685450412542842
6036956 94 18188789338729875844
6371009 1 18334861610906670652
6608658 132 18412822482262438847
7226269 152 18335423486780755206
9961470 85 18124029298434883272
999808 66 11527945677396091831

> <PUBCHEM_SHAPE_MULTIPOLES>
666.64
21.17
4.63
1.37
35.75
3.22
0.1
4.82
-8.45
-1.78
0.93
-1.5
-0.49
-1.33

> <PUBCHEM_SHAPE_SELFOVERLAP>
1448.379

> <PUBCHEM_SHAPE_VOLUME>
367.3

> <PUBCHEM_COORDINATE_TYPE>
2
5
10

$$$$