25156132
  -OEChem-03242010103D

 76 79  0     0  0  0  0  0  0999 V2000
    4.1948    0.5461   -0.8883 O   0  0  0  0  0  0  0  0  0  0  0  0
   -4.8554    1.2455   -0.5202 O   0  0  0  0  0  0  0  0  0  0  0  0
   -1.6976   -1.5272   -3.3000 O   0  0  0  0  0  0  0  0  0  0  0  0
   -0.1842    2.9661    0.2424 N   0  0  0  0  0  0  0  0  0  0  0  0
   -2.3985    1.2627    0.8383 N   0  0  0  0  0  0  0  0  0  0  0  0
   -1.1741    2.6441   -0.7927 C   0  0  0  0  0  0  0  0  0  0  0  0
   -0.8379    3.0303    1.5555 C   0  0  0  0  0  0  0  0  0  0  0  0
   -1.8397    1.2935   -0.5167 C   0  0  0  0  0  0  0  0  0  0  0  0
   -1.4911    1.6925    1.9097 C   0  0  0  0  0  0  0  0  0  0  0  0
    0.4825    4.2318   -0.0611 C   0  0  0  0  0  0  0  0  0  0  0  0
    1.5989    4.0122   -1.0806 C   0  0  0  0  0  0  0  0  0  0  0  0
    2.6388    3.0186   -0.5569 C   0  0  0  0  0  0  0  0  0  0  0  0
   -3.3987    0.3369    1.1556 C   0  0  0  0  0  0  0  0  0  0  0  0
    3.7773    2.8238   -1.5626 C   0  0  0  0  0  0  0  0  0  0  0  0
   -4.6137    0.3414    0.4707 C   0  0  0  0  0  0  0  0  0  0  0  0
   -3.1713   -0.5971    2.1664 C   0  0  0  0  0  0  0  0  0  0  0  0
    4.8089    1.8128   -1.0766 C   0  0  0  0  0  0  0  0  0  0  0  0
   -5.6015   -0.5880    0.7966 C   0  0  0  0  0  0  0  0  0  0  0  0
   -4.1590   -1.5266    2.4922 C   0  0  0  0  0  0  0  0  0  0  0  0
   -5.3740   -1.5220    1.8073 C   0  0  0  0  0  0  0  0  0  0  0  0
    4.7259   -0.2609    0.0846 C   0  0  0  0  0  0  0  0  0  0  0  0
    3.9226   -1.1679    0.7758 C   0  0  0  0  0  0  0  0  0  0  0  0
    2.4655   -1.2829    0.4713 C   0  0  0  0  0  0  0  0  0  0  0  0
    2.0952   -2.5270   -0.3590 C   0  0  0  0  0  0  0  0  0  0  0  0
   -5.4490    2.4838   -0.1361 C   0  0  0  0  0  0  0  0  0  0  0  0
    6.0856   -0.1667    0.3810 C   0  0  0  0  0  0  0  0  0  0  0  0
    4.4791   -1.9807    1.7633 C   0  0  0  0  0  0  0  0  0  0  0  0
    0.6242   -2.6070   -0.6871 C   0  0  0  0  0  0  0  0  0  0  0  0
    6.6420   -0.9795    1.3687 C   0  0  0  0  0  0  0  0  0  0  0  0
    5.8388   -1.8866    2.0598 C   0  0  0  0  0  0  0  0  0  0  0  0
    0.1372   -2.0224   -1.8561 C   0  0  0  0  0  0  0  0  0  0  0  0
   -0.2484   -3.2657    0.1791 C   0  0  0  0  0  0  0  0  0  0  0  0
   -1.2223   -2.0968   -2.1591 C   0  0  0  0  0  0  0  0  0  0  0  0
   -1.6080   -3.3401   -0.1238 C   0  0  0  0  0  0  0  0  0  0  0  0
   -2.0948   -2.7556   -1.2929 C   0  0  0  0  0  0  0  0  0  0  0  0
   -3.0981   -1.6413   -3.5484 C   0  0  0  0  0  0  0  0  0  0  0  0
   -1.9467    3.4232   -0.8492 H   0  0  0  0  0  0  0  0  0  0  0  0
   -0.7027    2.5819   -1.7795 H   0  0  0  0  0  0  0  0  0  0  0  0
   -0.1009    3.2627    2.3340 H   0  0  0  0  0  0  0  0  0  0  0  0
   -1.5946    3.8264    1.5718 H   0  0  0  0  0  0  0  0  0  0  0  0
   -2.5894    1.1097   -1.2919 H   0  0  0  0  0  0  0  0  0  0  0  0
   -1.0927    0.4958   -0.6043 H   0  0  0  0  0  0  0  0  0  0  0  0
   -0.7096    0.9369    2.0644 H   0  0  0  0  0  0  0  0  0  0  0  0
   -2.0333    1.8249    2.8545 H   0  0  0  0  0  0  0  0  0  0  0  0
   -0.2223    4.9924   -0.4200 H   0  0  0  0  0  0  0  0  0  0  0  0
    0.9473    4.6454    0.8439 H   0  0  0  0  0  0  0  0  0  0  0  0
    1.1988    3.6697   -2.0413 H   0  0  0  0  0  0  0  0  0  0  0  0
    2.0864    4.9757   -1.2751 H   0  0  0  0  0  0  0  0  0  0  0  0
    2.1658    2.0509   -0.3600 H   0  0  0  0  0  0  0  0  0  0  0  0
    3.0503    3.3780    0.3943 H   0  0  0  0  0  0  0  0  0  0  0  0
    4.2713    3.7824   -1.7581 H   0  0  0  0  0  0  0  0  0  0  0  0
    3.3521    2.4707   -2.5102 H   0  0  0  0  0  0  0  0  0  0  0  0
   -2.2325   -0.6484    2.7100 H   0  0  0  0  0  0  0  0  0  0  0  0
    5.6020    1.7166   -1.8269 H   0  0  0  0  0  0  0  0  0  0  0  0
    5.2398    2.2057   -0.1463 H   0  0  0  0  0  0  0  0  0  0  0  0
   -6.5500   -0.5915    0.2664 H   0  0  0  0  0  0  0  0  0  0  0  0
   -3.9802   -2.2577    3.2753 H   0  0  0  0  0  0  0  0  0  0  0  0
   -6.1423   -2.2469    2.0598 H   0  0  0  0  0  0  0  0  0  0  0  0
    1.9104   -1.3006    1.4199 H   0  0  0  0  0  0  0  0  0  0  0  0
    2.0997   -0.3836   -0.0391 H   0  0  0  0  0  0  0  0  0  0  0  0
    2.3959   -3.4398    0.1720 H   0  0  0  0  0  0  0  0  0  0  0  0
    2.6735   -2.5340   -1.2929 H   0  0  0  0  0  0  0  0  0  0  0  0
   -5.5634    3.1006   -1.0316 H   0  0  0  0  0  0  0  0  0  0  0  0
   -4.8093    3.0162    0.5749 H   0  0  0  0  0  0  0  0  0  0  0  0
   -6.4380    2.3151    0.3016 H   0  0  0  0  0  0  0  0  0  0  0  0
    6.7544    0.5019   -0.1527 H   0  0  0  0  0  0  0  0  0  0  0  0
    3.8642   -2.6913    2.3095 H   0  0  0  0  0  0  0  0  0  0  0  0
    7.7021   -0.9118    1.5950 H   0  0  0  0  0  0  0  0  0  0  0  0
    6.2725   -2.5206    2.8277 H   0  0  0  0  0  0  0  0  0  0  0  0
    0.8119   -1.5047   -2.5335 H   0  0  0  0  0  0  0  0  0  0  0  0
    0.1188   -3.7224    1.0943 H   0  0  0  0  0  0  0  0  0  0  0  0
   -2.2869   -3.8516    0.5523 H   0  0  0  0  0  0  0  0  0  0  0  0
   -3.1616   -2.8485   -1.4651 H   0  0  0  0  0  0  0  0  0  0  0  0
   -3.3007   -1.1325   -4.4964 H   0  0  0  0  0  0  0  0  0  0  0  0
   -3.6857   -1.1289   -2.7788 H   0  0  0  0  0  0  0  0  0  0  0  0
   -3.4007   -2.6863   -3.6748 H   0  0  0  0  0  0  0  0  0  0  0  0
  1 17  1  0  0  0  0
  1 21  1  0  0  0  0
  2 15  1  0  0  0  0
  2 25  1  0  0  0  0
  3 33  1  0  0  0  0
  3 36  1  0  0  0  0
  4  6  1  0  0  0  0
  4  7  1  0  0  0  0
  4 10  1  0  0  0  0
  5  8  1  0  0  0  0
  5  9  1  0  0  0  0
  5 13  1  0  0  0  0
  6  8  1  0  0  0  0
  6 37  1  0  0  0  0
  6 38  1  0  0  0  0
  7  9  1  0  0  0  0
  7 39  1  0  0  0  0
  7 40  1  0  0  0  0
  8 41  1  0  0  0  0
  8 42  1  0  0  0  0
  9 43  1  0  0  0  0
  9 44  1  0  0  0  0
 10 11  1  0  0  0  0
 10 45  1  0  0  0  0
 10 46  1  0  0  0  0
 11 12  1  0  0  0  0
 11 47  1  0  0  0  0
 11 48  1  0  0  0  0
 12 14  1  0  0  0  0
 12 49  1  0  0  0  0
 12 50  1  0  0  0  0
 13 15  1  0  0  0  0
 13 16  2  0  0  0  0
 14 17  1  0  0  0  0
 14 51  1  0  0  0  0
 14 52  1  0  0  0  0
 15 18  2  0  0  0  0
 16 19  1  0  0  0  0
 16 53  1  0  0  0  0
 17 54  1  0  0  0  0
 17 55  1  0  0  0  0
 18 20  1  0  0  0  0
 18 56  1  0  0  0  0
 19 20  2  0  0  0  0
 19 57  1  0  0  0  0
 20 58  1  0  0  0  0
 21 22  1  0  0  0  0
 21 26  2  0  0  0  0
 22 23  1  0  0  0  0
 22 27  2  0  0  0  0
 23 24  1  0  0  0  0
 23 59  1  0  0  0  0
 23 60  1  0  0  0  0
 24 28  1  0  0  0  0
 24 61  1  0  0  0  0
 24 62  1  0  0  0  0
 25 63  1  0  0  0  0
 25 64  1  0  0  0  0
 25 65  1  0  0  0  0
 26 29  1  0  0  0  0
 26 66  1  0  0  0  0
 27 30  1  0  0  0  0
 27 67  1  0  0  0  0
 28 31  2  0  0  0  0
 28 32  1  0  0  0  0
 29 30  2  0  0  0  0
 29 68  1  0  0  0  0
 30 69  1  0  0  0  0
 31 33  1  0  0  0  0
 31 70  1  0  0  0  0
 32 34  2  0  0  0  0
 32 71  1  0  0  0  0
 33 35  2  0  0  0  0
 34 35  1  0  0  0  0
 34 72  1  0  0  0  0
 35 73  1  0  0  0  0
 36 74  1  0  0  0  0
 36 75  1  0  0  0  0
 36 76  1  0  0  0  0
M  END
> <PUBCHEM_COMPOUND_CID>
25156132

> <PUBCHEM_CONFORMER_RMSD>
1.8

> <PUBCHEM_CONFORMER_DIVERSEORDER>
1
31
69
70
109
65
56
72
85
37
66
97
45
73
17
96
88
26
43
108
18
91
83
11
39
105
12
9
87
24
81
76
75
52
27
41
106
6
10
53
93
42
100
50
58
54
60
28
59
78
13
92
99
21
38
62
63
71
102
90
33
77
57
64
7
49
67
44
30
80
55
35
107
32
51
29
48
8
95
103
79
15
104
86
4
34
89
46
82
16
2
47
74
101
98
25
20
3
36
68
61
14
5
40
23
19
22
94
84

> <PUBCHEM_MMFF94_PARTIAL_CHARGES>
45
1 -0.36
10 0.27
13 0.1
15 0.08
16 -0.15
17 0.28
18 -0.15
19 -0.15
2 -0.36
20 -0.15
21 0.08
22 -0.14
23 0.14
24 0.14
25 0.28
26 -0.15
27 -0.15
28 -0.14
29 -0.15
3 -0.36
30 -0.15
31 -0.15
32 -0.15
33 0.08
34 -0.15
35 -0.15
36 0.28
4 -0.81
5 -0.84
53 0.15
56 0.15
57 0.15
58 0.15
6 0.27
66 0.15
67 0.15
68 0.15
69 0.15
7 0.27
70 0.15
71 0.15
72 0.15
73 0.15
8 0.37
9 0.37

> <PUBCHEM_EFFECTIVE_ROTOR_COUNT>
14.2

> <PUBCHEM_PHARMACOPHORE_FEATURES>
9
1 1 acceptor
1 2 acceptor
1 3 acceptor
1 4 cation
1 5 cation
6 13 15 16 18 19 20 rings
6 21 22 26 27 29 30 rings
6 28 31 32 33 34 35 rings
6 4 5 6 7 8 9 rings

> <PUBCHEM_HEAVY_ATOM_COUNT>
36

> <PUBCHEM_ATOM_DEF_STEREO_COUNT>
0

> <PUBCHEM_ATOM_UDEF_STEREO_COUNT>
0

> <PUBCHEM_BOND_DEF_STEREO_COUNT>
0

> <PUBCHEM_BOND_UDEF_STEREO_COUNT>
0

> <PUBCHEM_ISOTOPIC_ATOM_COUNT>
0

> <PUBCHEM_COMPONENT_COUNT>
1

> <PUBCHEM_CACTVS_TAUTO_COUNT>
1

> <PUBCHEM_CONFORMER_ID>
017FDA2400000001

> <PUBCHEM_MMFF94_ENERGY>
122.3645

> <PUBCHEM_FEATURE_SELFOVERLAP>
45.675

> <PUBCHEM_SHAPE_FINGERPRINT>
10675989 125 17037251802225751909
10815517 723 18270392786194518926
11135926 11 18044652247196263324
11146851 88 18336262366786360193
12156800 1 16199315476434061023
13165054 189 17766016999914863793
14117953 113 18267021656898364660
14725015 67 16390146267726980652
14840074 17 17989214720324926955
14950920 106 17749107815947301658
15001296 14 18051984902197699464
15264996 55 17611749998470363258
15403338 16 17967814937844718866
19319366 153 17827378866622151860
20764821 26 18058434564882263792
25019877 29 17203608185536822998
3298306 158 18267316485508744325
373842 8 18336268946750214754
392239 28 18261685804552654771
463206 1 18410289259354619500
469060 322 18269816692945151175
5047190 2 18125726935222728039
6287921 2 17627818330059536971
9896288 288 17981326691001146296

> <PUBCHEM_SHAPE_MULTIPOLES>
713.29
13.38
5.31
2.64
8.67
3.64
-1.26
-2.28
6.46
0.9
-1.3
-1.97
-1.65
-2.69

> <PUBCHEM_SHAPE_SELFOVERLAP>
1497.518

> <PUBCHEM_SHAPE_VOLUME>
402.8

> <PUBCHEM_COORDINATE_TYPE>
2
5
10

$$$$