119373
  -OEChem-03242010103D

 75 80  0     1  0  0  0  0  0999 V2000
   10.5982    1.7891   -0.2759 O   0  0  0  0  0  0  0  0  0  0  0  0
   11.2787   -0.8749    0.1168 O   0  0  0  0  0  0  0  0  0  0  0  0
   -4.9107   -2.8441   -0.8651 O   0  0  0  0  0  0  0  0  0  0  0  0
   -9.3490    0.7520    0.9172 O   0  0  0  0  0  0  0  0  0  0  0  0
   -3.1599    2.3945   -1.7089 O   0  0  0  0  0  0  0  0  0  0  0  0
    4.8836   -0.3827   -0.0022 N   0  0  2  0  0  0  0  0  0  0  0  0
   -2.8586    0.9941    0.1493 N   0  0  0  0  0  0  0  0  0  0  0  0
   -5.6054   -0.1700   -0.3224 N   0  0  0  0  0  0  0  0  0  0  0  0
    5.1954   -1.4833    0.9179 C   0  0  0  0  0  0  0  0  0  0  0  0
    5.8353    0.7260    0.1894 C   0  0  0  0  0  0  0  0  0  0  0  0
    6.5541   -2.0934    0.5587 C   0  0  0  0  0  0  0  0  0  0  0  0
    7.2814    0.2885    0.1409 C   0  0  0  0  0  0  0  0  0  0  0  0
    7.6281   -1.0554    0.3627 C   0  0  0  0  0  0  0  0  0  0  0  0
    3.5117    0.0845    0.1933 C   0  0  0  0  0  0  0  0  0  0  0  0
    2.4977   -0.8371   -0.4993 C   0  0  0  0  0  0  0  0  0  0  0  0
    8.2920    1.2378   -0.0618 C   0  0  0  0  0  0  0  0  0  0  0  0
    8.9762   -1.4360    0.3418 C   0  0  0  0  0  0  0  0  0  0  0  0
    9.6321    0.8508   -0.0710 C   0  0  0  0  0  0  0  0  0  0  0  0
    9.9736   -0.4850    0.1283 C   0  0  0  0  0  0  0  0  0  0  0  0
    1.0959   -0.3569   -0.3299 C   0  0  0  0  0  0  0  0  0  0  0  0
    0.3403   -0.7840    0.7622 C   0  0  0  0  0  0  0  0  0  0  0  0
    0.5400    0.5182   -1.2630 C   0  0  0  0  0  0  0  0  0  0  0  0
   -1.5268    0.5391   -0.0123 C   0  0  0  0  0  0  0  0  0  0  0  0
   -0.9710   -0.3359    0.9210 C   0  0  0  0  0  0  0  0  0  0  0  0
   -0.7713    0.9663   -1.1043 C   0  0  0  0  0  0  0  0  0  0  0  0
   -5.9058    1.1737   -0.0633 C   0  0  0  0  0  0  0  0  0  0  0  0
   -7.1925    1.5358    0.3690 C   0  0  0  0  0  0  0  0  0  0  0  0
   -4.9396    2.1720   -0.2276 C   0  0  0  0  0  0  0  0  0  0  0  0
   -6.5307   -1.2118   -0.1764 C   0  0  0  0  0  0  0  0  0  0  0  0
   -7.8398   -0.9347    0.2513 C   0  0  0  0  0  0  0  0  0  0  0  0
   -8.2172    0.4731    0.5430 C   0  0  0  0  0  0  0  0  0  0  0  0
   -3.5851    1.8648   -0.6718 C   0  0  0  0  0  0  0  0  0  0  0  0
   11.1252    2.4395    0.8789 C   0  0  0  0  0  0  0  0  0  0  0  0
   11.8275   -1.2657   -1.1404 C   0  0  0  0  0  0  0  0  0  0  0  0
   -7.5083    2.8718    0.6324 C   0  0  0  0  0  0  0  0  0  0  0  0
   -5.2534    3.5067    0.0346 C   0  0  0  0  0  0  0  0  0  0  0  0
   -6.1727   -2.5362   -0.4498 C   0  0  0  0  0  0  0  0  0  0  0  0
   -8.7752   -1.9626    0.4018 C   0  0  0  0  0  0  0  0  0  0  0  0
   -6.5340    3.8550    0.4633 C   0  0  0  0  0  0  0  0  0  0  0  0
   -7.1055   -3.5640   -0.2997 C   0  0  0  0  0  0  0  0  0  0  0  0
   -8.4029   -3.2775    0.1245 C   0  0  0  0  0  0  0  0  0  0  0  0
   -3.9516   -3.1422    0.1467 C   0  0  0  0  0  0  0  0  0  0  0  0
    4.4515   -2.2850    0.8624 H   0  0  0  0  0  0  0  0  0  0  0  0
    5.2063   -1.1289    1.9579 H   0  0  0  0  0  0  0  0  0  0  0  0
    5.6737    1.4647   -0.6058 H   0  0  0  0  0  0  0  0  0  0  0  0
    5.6647    1.2216    1.1547 H   0  0  0  0  0  0  0  0  0  0  0  0
    6.8501   -2.7882    1.3538 H   0  0  0  0  0  0  0  0  0  0  0  0
    6.4623   -2.6683   -0.3717 H   0  0  0  0  0  0  0  0  0  0  0  0
    3.2755    0.2009    1.2598 H   0  0  0  0  0  0  0  0  0  0  0  0
    3.3970    1.0828   -0.2520 H   0  0  0  0  0  0  0  0  0  0  0  0
    2.7336   -0.9108   -1.5696 H   0  0  0  0  0  0  0  0  0  0  0  0
    2.5663   -1.8624   -0.1168 H   0  0  0  0  0  0  0  0  0  0  0  0
    8.0319    2.2830   -0.2131 H   0  0  0  0  0  0  0  0  0  0  0  0
    9.2479   -2.4782    0.4935 H   0  0  0  0  0  0  0  0  0  0  0  0
    0.7625   -1.4643    1.4971 H   0  0  0  0  0  0  0  0  0  0  0  0
    1.1200    0.8590   -2.1168 H   0  0  0  0  0  0  0  0  0  0  0  0
   -1.5492   -0.6768    1.7761 H   0  0  0  0  0  0  0  0  0  0  0  0
   -1.1307    1.6419   -1.8672 H   0  0  0  0  0  0  0  0  0  0  0  0
   -4.6780   -0.4098   -0.6461 H   0  0  0  0  0  0  0  0  0  0  0  0
   -3.3315    0.6390    0.9781 H   0  0  0  0  0  0  0  0  0  0  0  0
   10.3361    2.9868    1.4042 H   0  0  0  0  0  0  0  0  0  0  0  0
   11.5908    1.7127    1.5519 H   0  0  0  0  0  0  0  0  0  0  0  0
   11.8875    3.1522    0.5526 H   0  0  0  0  0  0  0  0  0  0  0  0
   11.2919   -2.1328   -1.5396 H   0  0  0  0  0  0  0  0  0  0  0  0
   11.7855   -0.4366   -1.8538 H   0  0  0  0  0  0  0  0  0  0  0  0
   12.8743   -1.5415   -0.9862 H   0  0  0  0  0  0  0  0  0  0  0  0
   -8.4996    3.1635    0.9673 H   0  0  0  0  0  0  0  0  0  0  0  0
   -4.5073    4.2882   -0.0882 H   0  0  0  0  0  0  0  0  0  0  0  0
   -9.7901   -1.7600    0.7316 H   0  0  0  0  0  0  0  0  0  0  0  0
   -6.7729    4.8950    0.6668 H   0  0  0  0  0  0  0  0  0  0  0  0
   -6.8272   -4.5927   -0.5130 H   0  0  0  0  0  0  0  0  0  0  0  0
   -9.1249   -4.0809    0.2395 H   0  0  0  0  0  0  0  0  0  0  0  0
   -3.8627   -2.3146    0.8576 H   0  0  0  0  0  0  0  0  0  0  0  0
   -4.2281   -4.0606    0.6740 H   0  0  0  0  0  0  0  0  0  0  0  0
   -2.9815   -3.2935   -0.3346 H   0  0  0  0  0  0  0  0  0  0  0  0
  1 18  1  0  0  0  0
  1 33  1  0  0  0  0
  2 19  1  0  0  0  0
  2 34  1  0  0  0  0
  3 37  1  0  0  0  0
  3 42  1  0  0  0  0
  4 31  2  0  0  0  0
  5 32  2  0  0  0  0
  6  9  1  0  0  0  0
  6 10  1  0  0  0  0
  6 14  1  0  0  0  0
  7 23  1  0  0  0  0
  7 32  1  0  0  0  0
  7 60  1  0  0  0  0
  8 26  1  0  0  0  0
  8 29  1  0  0  0  0
  8 59  1  0  0  0  0
  9 11  1  0  0  0  0
  9 43  1  0  0  0  0
  9 44  1  0  0  0  0
 10 12  1  0  0  0  0
 10 45  1  0  0  0  0
 10 46  1  0  0  0  0
 11 13  1  0  0  0  0
 11 47  1  0  0  0  0
 11 48  1  0  0  0  0
 12 13  1  0  0  0  0
 12 16  2  0  0  0  0
 13 17  2  0  0  0  0
 14 15  1  0  0  0  0
 14 49  1  0  0  0  0
 14 50  1  0  0  0  0
 15 20  1  0  0  0  0
 15 51  1  0  0  0  0
 15 52  1  0  0  0  0
 16 18  1  0  0  0  0
 16 53  1  0  0  0  0
 17 19  1  0  0  0  0
 17 54  1  0  0  0  0
 18 19  2  0  0  0  0
 20 21  2  0  0  0  0
 20 22  1  0  0  0  0
 21 24  1  0  0  0  0
 21 55  1  0  0  0  0
 22 25  2  0  0  0  0
 22 56  1  0  0  0  0
 23 24  2  0  0  0  0
 23 25  1  0  0  0  0
 24 57  1  0  0  0  0
 25 58  1  0  0  0  0
 26 27  2  0  0  0  0
 26 28  1  0  0  0  0
 27 31  1  0  0  0  0
 27 35  1  0  0  0  0
 28 32  1  0  0  0  0
 28 36  2  0  0  0  0
 29 30  2  0  0  0  0
 29 37  1  0  0  0  0
 30 31  1  0  0  0  0
 30 38  1  0  0  0  0
 33 61  1  0  0  0  0
 33 62  1  0  0  0  0
 33 63  1  0  0  0  0
 34 64  1  0  0  0  0
 34 65  1  0  0  0  0
 34 66  1  0  0  0  0
 35 39  2  0  0  0  0
 35 67  1  0  0  0  0
 36 39  1  0  0  0  0
 36 68  1  0  0  0  0
 37 40  2  0  0  0  0
 38 41  2  0  0  0  0
 38 69  1  0  0  0  0
 39 70  1  0  0  0  0
 40 41  1  0  0  0  0
 40 71  1  0  0  0  0
 41 72  1  0  0  0  0
 42 73  1  0  0  0  0
 42 74  1  0  0  0  0
 42 75  1  0  0  0  0
M  END
> <PUBCHEM_COMPOUND_CID>
119373

> <PUBCHEM_CONFORMER_RMSD>
1.2

> <PUBCHEM_CONFORMER_DIVERSEORDER>
1
4
30
51
61
39
81
59
14
54
17
47
7
79
50
6
15
44
22
88
18
80
90
5
41
12
46
84
19
77
23
10
16
42
21
64
27
60
78
70
38
24
35
63
36
48
9
75
37
25
28
13
65
82
71
85
29
73
69
20
87
55
45
40
2
8
11
43
66
57
62
56
72
33
32
31
67
68
86
74
89
26
49
3
34
52
83
58
76
53

> <PUBCHEM_MMFF94_PARTIAL_CHARGES>
56
1 -0.36
10 0.41
11 0.14
12 -0.14
13 -0.14
14 0.27
15 0.14
16 -0.15
17 -0.15
18 0.08
19 0.08
2 -0.36
20 -0.14
21 -0.15
22 -0.15
23 0.12
24 -0.15
25 -0.15
26 0.1
27 0.09
28 0.09
29 0.1
3 -0.36
30 0.09
31 0.4
32 0.54
33 0.28
34 0.28
35 -0.15
36 -0.15
37 0.08
38 -0.15
39 -0.15
4 -0.57
40 -0.15
41 -0.15
42 0.28
5 -0.57
53 0.15
54 0.15
55 0.15
56 0.15
57 0.15
58 0.15
59 0.4
6 -0.81
60 0.37
67 0.15
68 0.15
69 0.15
7 -0.55
70 0.15
71 0.15
72 0.15
8 -0.6
9 0.27

> <PUBCHEM_EFFECTIVE_ROTOR_COUNT>
9.8

> <PUBCHEM_PHARMACOPHORE_FEATURES>
15
1 1 acceptor
1 2 acceptor
1 3 acceptor
1 4 acceptor
1 5 acceptor
1 6 cation
1 7 donor
1 8 cation
1 8 donor
6 12 13 16 17 18 19 rings
6 20 21 22 23 24 25 rings
6 26 27 28 35 36 39 rings
6 29 30 37 38 40 41 rings
6 6 9 10 11 12 13 rings
6 8 26 27 29 30 31 rings

> <PUBCHEM_HEAVY_ATOM_COUNT>
42

> <PUBCHEM_ATOM_DEF_STEREO_COUNT>
0

> <PUBCHEM_ATOM_UDEF_STEREO_COUNT>
0

> <PUBCHEM_BOND_DEF_STEREO_COUNT>
0

> <PUBCHEM_BOND_UDEF_STEREO_COUNT>
0

> <PUBCHEM_ISOTOPIC_ATOM_COUNT>
0

> <PUBCHEM_COMPONENT_COUNT>
1

> <PUBCHEM_CACTVS_TAUTO_COUNT>
9

> <PUBCHEM_CONFORMER_ID>
0001D24D00000001

> <PUBCHEM_MMFF94_ENERGY>
166.4218

> <PUBCHEM_FEATURE_SELFOVERLAP>
76.198

> <PUBCHEM_SHAPE_FINGERPRINT>
10100884 174 18261674895921759435
10162869 55 16950282927944376694
10580692 12 18411136952343049874
11146346 171 18202285810507805550
11455722 242 18411419553197284871
11966995 178 18410014300945116006
11973864 47 18272642490217255352
12013929 94 18411419543985215091
12082328 90 18412540998732398575
12089408 11 18333730200762301282
12144600 37 18342172314626592400
12144603 126 18333731330075547122
12539745 222 18059859493745964547
13740195 50 18411979187272286520
13947934 56 18272934900175173018
15065858 18 18343580734225863112
15145343 6 18060416920323815024
15274700 256 18411699928487982546
15461852 350 18410295813579701502
15510794 2 18202569458658866622
15530121 191 18131061654705622376
15538507 19 18192715760031897275
15728490 51 18335419071422278903
17686467 74 18113618997176819729
21026386 80 16988571182054777772
21362267 20 18410291415001753026
21772524 286 18270401572991673281
21792961 116 17489587839926847314
21795232 338 18130499825410564735
232437 2 18335139770495507506
24771293 8 18113621162230532588
335507 130 18272368697902945303
3418910 222 18130796637558234464
395649 100 18335138709327660899
44280117 145 18411419540507347007
45270241 37 18273217479364634990
4625314 4 18341895217049412622
54039377 194 18187082901911912039
54583773 228 18412266168756059232
57676310 188 18114178601630754299
6691757 9 16443353069671078193
67123 10 18408886231225337488
99344 41 18410293584159826734
9962374 69 17675926512804935284

> <PUBCHEM_SHAPE_MULTIPOLES>
820.05
46.39
3.89
0.94
101.95
0.2
-0.14
-2.37
4.06
-10.85
0.04
0.12
0.13
-0.36

> <PUBCHEM_SHAPE_SELFOVERLAP>
1805.255

> <PUBCHEM_SHAPE_VOLUME>
440.7

> <PUBCHEM_COORDINATE_TYPE>
2
5
10

$$$$