39176758
  -OEChem-03242010103D

 48 50  0     0  0  0  0  0  0999 V2000
   -1.3896    2.3641   -0.6817 F   0  0  0  0  0  0  0  0  0  0  0  0
    5.6953   -2.1160   -0.5234 O   0  0  0  0  0  0  0  0  0  0  0  0
    4.6066    2.4385    0.4808 O   0  0  0  0  0  0  0  0  0  0  0  0
    6.4967    0.5034   -0.1149 O   0  0  0  0  0  0  0  0  0  0  0  0
    0.7706   -2.0439    0.5695 O   0  0  0  0  0  0  0  0  0  0  0  0
    0.1391    0.1456   -0.0105 N   0  0  0  0  0  0  0  0  0  0  0  0
   -4.0416   -0.0354   -0.0304 C   0  0  0  0  0  0  0  0  0  0  0  0
    2.4812   -0.5188    0.1700 C   0  0  0  0  0  0  0  0  0  0  0  0
   -1.2547    0.0873   -0.0178 C   0  0  0  0  0  0  0  0  0  0  0  0
   -5.4870   -0.0993   -0.0363 C   0  0  0  0  0  0  0  0  0  0  0  0
    2.8810    0.8016    0.3751 C   0  0  0  0  0  0  0  0  0  0  0  0
    3.4301   -1.4960   -0.1310 C   0  0  0  0  0  0  0  0  0  0  0  0
    1.0444   -0.8859    0.2726 C   0  0  0  0  0  0  0  0  0  0  0  0
    4.7786   -1.1526   -0.2271 C   0  0  0  0  0  0  0  0  0  0  0  0
    4.2295    1.1450    0.2792 C   0  0  0  0  0  0  0  0  0  0  0  0
   -3.3943    1.1541   -0.3648 C   0  0  0  0  0  0  0  0  0  0  0  0
   -3.2954   -1.1636    0.3102 C   0  0  0  0  0  0  0  0  0  0  0  0
    5.1783    0.1679   -0.0221 C   0  0  0  0  0  0  0  0  0  0  0  0
   -2.0009    1.2154   -0.3585 C   0  0  0  0  0  0  0  0  0  0  0  0
   -1.9019   -1.1023    0.3166 C   0  0  0  0  0  0  0  0  0  0  0  0
   -6.1638   -0.4682   -1.1989 C   0  0  0  0  0  0  0  0  0  0  0  0
   -6.2037    0.2069    1.1205 C   0  0  0  0  0  0  0  0  0  0  0  0
   -7.5574   -0.5307   -1.2047 C   0  0  0  0  0  0  0  0  0  0  0  0
   -7.5971    0.1441    1.1148 C   0  0  0  0  0  0  0  0  0  0  0  0
   -8.2739   -0.2246   -0.0479 C   0  0  0  0  0  0  0  0  0  0  0  0
    6.2817   -2.8119    0.5750 C   0  0  0  0  0  0  0  0  0  0  0  0
    3.5740    3.3745    0.7843 C   0  0  0  0  0  0  0  0  0  0  0  0
    6.9738    0.9009   -1.3984 C   0  0  0  0  0  0  0  0  0  0  0  0
    2.1319    1.5292    0.6588 H   0  0  0  0  0  0  0  0  0  0  0  0
    3.1319   -2.5280   -0.2994 H   0  0  0  0  0  0  0  0  0  0  0  0
   -3.9606    2.0429   -0.6328 H   0  0  0  0  0  0  0  0  0  0  0  0
   -3.7854   -2.0980    0.5745 H   0  0  0  0  0  0  0  0  0  0  0  0
    0.5075    1.0453   -0.3058 H   0  0  0  0  0  0  0  0  0  0  0  0
   -1.3968   -2.0157    0.5966 H   0  0  0  0  0  0  0  0  0  0  0  0
   -5.6206   -0.7103   -2.1094 H   0  0  0  0  0  0  0  0  0  0  0  0
   -5.6918    0.4960    2.0354 H   0  0  0  0  0  0  0  0  0  0  0  0
   -8.0845   -0.8178   -2.1098 H   0  0  0  0  0  0  0  0  0  0  0  0
   -8.1553    0.3824    2.0155 H   0  0  0  0  0  0  0  0  0  0  0  0
   -9.3588   -0.2734   -0.0523 H   0  0  0  0  0  0  0  0  0  0  0  0
    6.9945   -3.5398    0.1780 H   0  0  0  0  0  0  0  0  0  0  0  0
    5.5144   -3.3471    1.1432 H   0  0  0  0  0  0  0  0  0  0  0  0
    6.8183   -2.1175    1.2292 H   0  0  0  0  0  0  0  0  0  0  0  0
    4.0522    4.3530    0.8992 H   0  0  0  0  0  0  0  0  0  0  0  0
    3.0899    3.1464    1.7400 H   0  0  0  0  0  0  0  0  0  0  0  0
    2.8570    3.4690   -0.0385 H   0  0  0  0  0  0  0  0  0  0  0  0
    8.0378    1.1368   -1.3100 H   0  0  0  0  0  0  0  0  0  0  0  0
    6.4455    1.7941   -1.7465 H   0  0  0  0  0  0  0  0  0  0  0  0
    6.8550    0.0885   -2.1223 H   0  0  0  0  0  0  0  0  0  0  0  0
  1 19  1  0  0  0  0
  2 14  1  0  0  0  0
  2 26  1  0  0  0  0
  3 15  1  0  0  0  0
  3 27  1  0  0  0  0
  4 18  1  0  0  0  0
  4 28  1  0  0  0  0
  5 13  2  0  0  0  0
  6  9  1  0  0  0  0
  6 13  1  0  0  0  0
  6 33  1  0  0  0  0
  7 10  1  0  0  0  0
  7 16  2  0  0  0  0
  7 17  1  0  0  0  0
  8 11  2  0  0  0  0
  8 12  1  0  0  0  0
  8 13  1  0  0  0  0
  9 19  2  0  0  0  0
  9 20  1  0  0  0  0
 10 21  2  0  0  0  0
 10 22  1  0  0  0  0
 11 15  1  0  0  0  0
 11 29  1  0  0  0  0
 12 14  2  0  0  0  0
 12 30  1  0  0  0  0
 14 18  1  0  0  0  0
 15 18  2  0  0  0  0
 16 19  1  0  0  0  0
 16 31  1  0  0  0  0
 17 20  2  0  0  0  0
 17 32  1  0  0  0  0
 20 34  1  0  0  0  0
 21 23  1  0  0  0  0
 21 35  1  0  0  0  0
 22 24  2  0  0  0  0
 22 36  1  0  0  0  0
 23 25  2  0  0  0  0
 23 37  1  0  0  0  0
 24 25  1  0  0  0  0
 24 38  1  0  0  0  0
 25 39  1  0  0  0  0
 26 40  1  0  0  0  0
 26 41  1  0  0  0  0
 26 42  1  0  0  0  0
 27 43  1  0  0  0  0
 27 44  1  0  0  0  0
 27 45  1  0  0  0  0
 28 46  1  0  0  0  0
 28 47  1  0  0  0  0
 28 48  1  0  0  0  0
M  END
> <PUBCHEM_COMPOUND_CID>
39176758

> <PUBCHEM_CONFORMER_RMSD>
0.8

> <PUBCHEM_CONFORMER_DIVERSEORDER>
1
10
2
3
12
13
15
11
14
6
8
9
7
4
5

> <PUBCHEM_MMFF94_PARTIAL_CHARGES>
37
1 -0.19
11 -0.15
12 -0.15
13 0.54
14 0.08
15 0.08
16 -0.15
17 -0.15
18 0.08
19 0.19
2 -0.36
20 -0.15
21 -0.15
22 -0.15
23 -0.15
24 -0.15
25 -0.15
26 0.28
27 0.28
28 0.28
29 0.15
3 -0.36
30 0.15
31 0.15
32 0.15
33 0.37
34 0.15
35 0.15
36 0.15
37 0.15
38 0.15
39 0.15
4 -0.36
5 -0.57
6 -0.55
8 0.09
9 0.12

> <PUBCHEM_EFFECTIVE_ROTOR_COUNT>
7

> <PUBCHEM_PHARMACOPHORE_FEATURES>
8
1 2 acceptor
1 3 acceptor
1 4 acceptor
1 5 acceptor
1 6 donor
6 10 21 22 23 24 25 rings
6 7 9 16 17 19 20 rings
6 8 11 12 14 15 18 rings

> <PUBCHEM_HEAVY_ATOM_COUNT>
28

> <PUBCHEM_ATOM_DEF_STEREO_COUNT>
0

> <PUBCHEM_ATOM_UDEF_STEREO_COUNT>
0

> <PUBCHEM_BOND_DEF_STEREO_COUNT>
0

> <PUBCHEM_BOND_UDEF_STEREO_COUNT>
0

> <PUBCHEM_ISOTOPIC_ATOM_COUNT>
0

> <PUBCHEM_COMPONENT_COUNT>
1

> <PUBCHEM_CACTVS_TAUTO_COUNT>
2

> <PUBCHEM_CONFORMER_ID>
0255CA3600000001

> <PUBCHEM_MMFF94_ENERGY>
120.8595

> <PUBCHEM_FEATURE_SELFOVERLAP>
40.607

> <PUBCHEM_SHAPE_FINGERPRINT>
10 15 17167861997739844721
10299344 5 17989769995108584175
10411042 1 18196655087182323506
11524674 6 15410890778323511175
12107698 1 18343864394233404784
12166972 35 18408888421052620548
12236239 1 18060419127989433327
13533116 47 18409446964696273610
14170010 4 18412824694913978824
14251764 18 18131070429032669331
14294032 229 15911950239744734035
14840074 17 18413102871282025135
14856354 85 16845570942557799461
14933364 13 18411139134755914553
15131766 46 15336836560826045152
15183329 4 17989211447153749963
15276724 80 18411696570008569789
15419008 47 17603578630338259109
1577012 14 18059862735717999913
16120349 18 18342453773378033673
17844677 252 18342461404717345049
20157964 124 18413387648914499458
21267235 1 18336550421436937139
21315759 40 17418373588951749955
21315763 28 18342457028646382147
21792934 111 18339070515574335553
221357 26 18412262822765421960
23035841 295 18060416902996342775
23081809 10 17704070720604358931
23516275 137 17202227173827879087
23522609 53 17702404981990294889
23559900 14 18261672670436784761
249057 25 17632587041244494137
249057 3 18413108364424260190
255183 451 17773047350071079102
2747138 104 17968105235470329993
335352 9 18412829110303792100
34797466 226 18202289100014541084
3545911 37 18334012804455554644
397830 11 17532946110996837641
4073 2 18189336938606805058
4093350 32 16917071088227016536
4325135 7 18272932730272313093
59755656 215 18113617846167899435
9962374 69 18339631304863969934

> <PUBCHEM_SHAPE_MULTIPOLES>
540.49
23.55
2.38
0.98
18.66
0.82
0.11
-2.72
2.18
-5.47
-0.43
0.66
0.08
-0.19

> <PUBCHEM_SHAPE_SELFOVERLAP>
1174.26

> <PUBCHEM_SHAPE_VOLUME>
297.6

> <PUBCHEM_COORDINATE_TYPE>
2
5
10

$$$$