113
 OpenBabel03292021583D

194194  0  0  1  0  0  0  0  0999 V2000
   13.8838   -3.3820   -5.2542 C   0  0  0  0  0  0  0  0  0  0  0  0
   15.2525   -3.2258   -5.8803 C   0  0  0  0  0  0  0  0  0  0  0  0
   15.5566   -3.6559   -7.1206 C   0  0  0  0  0  0  0  0  0  0  0  0
   16.8812   -3.4918   -7.8866 C   0  0  0  0  0  0  0  0  0  0  0  0
   16.7289   -3.4839   -9.4605 C   0  0  1  0  0  0  0  0  0  0  0  0
   15.9935   -4.7961   -9.8547 C   0  0  0  0  0  0  0  0  0  0  0  0
   18.0743   -3.2258  -10.3404 C   0  0  1  0  0  0  0  0  0  0  0  0
   17.8356   -3.8000  -11.6390 O   0  0  0  0  0  0  0  0  0  0  0  0
   18.6768   -1.7201  -10.6656 C   0  0  3  0  0  0  0  0  0  0  0  0
   18.1102   -0.8047   -9.5061 N   0  0  0  0  0  0  0  0  0  0  0  0
   16.7310   -0.4480   -9.5237 C   0  0  0  0  0  0  0  0  0  0  0  0
   16.1636   -0.6176  -10.6096 O   0  0  0  0  0  0  0  0  0  0  0  0
   15.8003   -0.0329   -8.1967 C   0  0  2  0  0  0  0  0  0  0  0  0
   16.3109    1.0774   -7.2074 C   0  0  0  0  0  0  0  0  0  0  0  0
   16.9307    0.4187   -5.9578 C   0  0  0  0  0  0  0  0  0  0  0  0
   15.2483    2.0475   -6.6358 C   0  0  0  0  0  0  0  0  0  0  0  0
   14.2489   -0.0144   -8.2956 N   0  0  0  0  0  0  0  0  0  0  0  0
   13.5179   -0.8006   -7.3194 C   0  0  0  0  0  0  0  0  0  0  0  0
   13.4126    0.9050   -8.9580 C   0  0  0  0  0  0  0  0  0  0  0  0
   12.4735    1.4623   -8.3757 O   0  0  0  0  0  0  0  0  0  0  0  0
   13.5478    1.0368  -10.4778 C   0  0  2  0  0  0  0  0  0  0  0  0
   13.4070   -0.4479  -10.9517 C   0  0  0  0  0  0  0  0  0  0  0  0
   13.4089   -0.8801  -12.4235 C   0  0  0  0  0  0  0  0  0  0  0  0
   14.0576   -2.2740  -12.5293 C   0  0  0  0  0  0  0  0  0  0  0  0
   11.9791   -0.9913  -12.9642 C   0  0  0  0  0  0  0  0  0  0  0  0
   14.7040    1.9470  -10.6328 N   0  0  0  0  0  0  0  0  0  0  0  0
   14.4303    3.2833  -10.0870 C   0  0  0  0  0  0  0  0  0  0  0  0
   15.3736    2.0487  -11.8480 C   0  0  0  0  0  0  0  0  0  0  0  0
   14.7654    2.1248  -12.9166 O   0  0  0  0  0  0  0  0  0  0  0  0
   16.9392    2.0661  -11.7146 C   0  0  2  0  0  0  0  0  0  0  0  0
   17.5524    3.1067  -10.7223 C   0  0  0  0  0  0  0  0  0  0  0  0
   18.0231    4.4745  -11.2384 C   0  0  0  0  0  0  0  0  0  0  0  0
   16.9927    5.2126  -12.0793 C   0  0  0  0  0  0  0  0  0  0  0  0
   18.4408    5.3425  -10.0410 C   0  0  0  0  0  0  0  0  0  0  0  0
   17.6944    1.8575  -12.9598 N   0  0  0  0  0  0  0  0  0  0  0  0
   17.1074    0.9227  -13.9198 C   0  0  0  0  0  0  0  0  0  0  0  0
   19.0563    1.6944  -12.7926 C   0  0  0  0  0  0  0  0  0  0  0  0
   19.5617    1.2540  -11.7540 O   0  0  0  0  0  0  0  0  0  0  0  0
   19.9418    2.0428  -13.9846 C   0  0  1  0  0  0  0  0  0  0  0  0
   19.5209    3.3011  -14.7274 C   0  0  0  0  0  0  0  0  0  0  0  0
   21.2359    2.2289  -13.3502 N   0  0  0  0  0  0  0  0  0  0  0  0
   22.3923    1.9882  -13.9999 C   0  0  0  0  0  0  0  0  0  0  0  0
   22.3946    1.6239  -15.1907 O   0  0  0  0  0  0  0  0  0  0  0  0
   23.6863    2.1647  -13.1844 C   0  0  2  0  0  0  0  0  0  0  0  0
   23.6406    3.3278  -12.2028 C   0  0  0  0  0  0  0  0  0  0  0  0
   24.6603    2.3146  -14.2506 N   0  0  0  0  0  0  0  0  0  0  0  0
   25.9914    2.5695  -14.0874 C   0  0  0  0  0  0  0  0  0  0  0  0
   26.5195    2.9316  -13.0440 O   0  0  0  0  0  0  0  0  0  0  0  0
   26.7537    2.3327  -15.3964 C   0  0  1  0  0  0  0  0  0  0  0  0
   26.1615    3.0415  -16.6471 C   0  0  0  0  0  0  0  0  0  0  0  0
   25.5463    4.4439  -16.6261 C   0  0  0  0  0  0  0  0  0  0  0  0
   26.6062    5.5336  -16.6521 C   0  0  0  0  0  0  0  0  0  0  0  0
   24.6544    4.5877  -17.8795 C   0  0  0  0  0  0  0  0  0  0  0  0
   28.2309    2.2794  -15.3026 N   0  0  0  0  0  0  0  0  0  0  0  0
   28.9023    3.3667  -14.6098 C   0  0  0  0  0  0  0  0  0  0  0  0
   28.8012    0.9818  -15.1828 C   0  0  0  0  0  0  0  0  0  0  0  0
   28.1181   -0.0323  -15.0559 O   0  0  0  0  0  0  0  0  0  0  0  0
   30.3172    0.8777  -15.4947 C   0  0  1  0  0  0  0  0  0  0  0  0
   30.9215   -0.5351  -15.2888 C   0  0  0  0  0  0  0  0  0  0  0  0
   32.4241   -0.5453  -15.6057 C   0  0  0  0  0  0  0  0  0  0  0  0
   30.7206   -1.0616  -13.8655 C   0  0  0  0  0  0  0  0  0  0  0  0
   30.3673    1.3481  -16.8899 N   0  0  0  0  0  0  0  0  0  0  0  0
   29.9229    0.4736  -17.8775 C   0  0  0  0  0  0  0  0  0  0  0  0
   30.6319   -0.4377  -18.2987 O   0  0  0  0  0  0  0  0  0  0  0  0
   28.4824    0.7411  -18.4031 C   0  0  1  0  0  0  0  0  0  0  0  0
   28.6537    1.2123  -19.8933 C   0  0  0  0  0  0  0  0  0  0  0  0
   29.2508    2.6703  -20.1007 C   0  0  0  0  0  0  0  0  0  0  0  0
   30.6963    2.9135  -19.6223 C   0  0  0  0  0  0  0  0  0  0  0  0
   29.2109    3.0884  -21.5820 C   0  0  0  0  0  0  0  0  0  0  0  0
   27.5487   -0.4494  -18.0375 N   0  0  0  0  0  0  0  0  0  0  0  0
   27.8732   -1.6980  -18.7054 C   0  0  0  0  0  0  0  0  0  0  0  0
   26.1879   -0.2813  -17.5980 C   0  0  0  0  0  0  0  0  0  0  0  0
   25.5088    0.5862  -18.1558 O   0  0  0  0  0  0  0  0  0  0  0  0
   25.5044   -1.2430  -16.3410 C   0  0  0  0  0  0  0  0  0  0  0  0
   23.9877   -1.1737  -15.7697 N   0  0  0  0  0  0  0  0  0  0  0  0
   23.0160   -0.9668  -16.8224 C   0  0  0  0  0  0  0  0  0  0  0  0
   23.5888   -1.2625  -14.3519 C   0  0  0  0  0  0  0  0  0  0  0  0
   24.4669   -0.9919  -13.5182 O   0  0  0  0  0  0  0  0  0  0  0  0
   22.0189   -1.8760  -13.6857 C   0  0  2  0  0  0  0  0  0  0  0  0
   21.3093   -2.7357  -14.7773 C   0  0  1  0  0  0  0  0  0  0  0  0
   20.1319   -2.0215  -15.4327 C   0  0  0  0  0  0  0  0  0  0  0  0
   20.8014   -3.9719  -14.2667 O   0  0  0  0  0  0  0  0  0  0  0  0
   20.8386   -1.3495  -12.5672 N   0  0  0  0  0  0  0  0  0  0  0  0
   20.3357   -1.9944  -11.3550 C   0  0  0  0  0  0  0  0  0  0  0  0
   21.0738   -2.8063  -10.7794 O   0  0  0  0  0  0  0  0  0  0  0  0
   13.5537   -2.4330   -4.8181 H   0  0  0  0  0  0  0  0  0  0  0  0
   13.8980   -4.1276   -4.4545 H   0  0  0  0  0  0  0  0  0  0  0  0
   13.1239   -3.6778   -5.9864 H   0  0  0  0  0  0  0  0  0  0  0  0
   15.9897   -2.7017   -5.2720 H   0  0  0  0  0  0  0  0  0  0  0  0
   14.7624   -4.1863   -7.6378 H   0  0  0  0  0  0  0  0  0  0  0  0
   17.3895   -2.5869   -7.5412 H   0  0  0  0  0  0  0  0  0  0  0  0
   17.5197   -4.3376   -7.6044 H   0  0  0  0  0  0  0  0  0  0  0  0
   15.9999   -2.7199   -9.7259 H   0  0  0  0  0  0  0  0  0  0  0  0
   14.9114   -4.6687   -9.7101 H   0  0  0  0  0  0  0  0  0  0  0  0
   16.3111   -5.6406   -9.2351 H   0  0  0  0  0  0  0  0  0  0  0  0
   16.1052   -5.0788  -10.9007 H   0  0  0  0  0  0  0  0  0  0  0  0
   18.8690   -3.8139   -9.8688 H   0  0  0  0  0  0  0  0  0  0  0  0
   17.0439   -3.3628  -12.0015 H   0  0  0  0  0  0  0  0  0  0  0  0
   18.1586   -1.3614  -11.5659 H   0  0  0  0  0  0  0  0  0  0  0  0
   18.6140   -0.8213   -8.6276 H   0  0  0  0  0  0  0  0  0  0  0  0
   15.9334   -0.9641   -7.6420 H   0  0  0  0  0  0  0  0  0  0  0  0
   17.0840    1.6692   -7.7074 H   0  0  0  0  0  0  0  0  0  0  0  0
   16.1798   -0.1745   -5.4186 H   0  0  0  0  0  0  0  0  0  0  0  0
   17.2979    1.1750   -5.2542 H   0  0  0  0  0  0  0  0  0  0  0  0
   17.7616   -0.2384   -6.2196 H   0  0  0  0  0  0  0  0  0  0  0  0
   14.5048    1.5340   -6.0143 H   0  0  0  0  0  0  0  0  0  0  0  0
   14.7050    2.5940   -7.3993 H   0  0  0  0  0  0  0  0  0  0  0  0
   15.7158    2.8019   -5.9920 H   0  0  0  0  0  0  0  0  0  0  0  0
   13.8941   -0.6103   -6.3151 H   0  0  0  0  0  0  0  0  0  0  0  0
   13.6270   -1.8441   -7.6057 H   0  0  0  0  0  0  0  0  0  0  0  0
   12.4405   -0.5977   -7.3296 H   0  0  0  0  0  0  0  0  0  0  0  0
   12.6756    1.5682  -10.8880 H   0  0  0  0  0  0  0  0  0  0  0  0
   14.0878   -1.0998  -10.4057 H   0  0  0  0  0  0  0  0  0  0  0  0
   12.4358   -0.7757  -10.5408 H   0  0  0  0  0  0  0  0  0  0  0  0
   13.9840   -0.1909  -13.0410 H   0  0  0  0  0  0  0  0  0  0  0  0
   13.5343   -3.0059  -11.9012 H   0  0  0  0  0  0  0  0  0  0  0  0
   15.1001   -2.2452  -12.2023 H   0  0  0  0  0  0  0  0  0  0  0  0
   14.0477   -2.6433  -13.5590 H   0  0  0  0  0  0  0  0  0  0  0  0
   11.3771   -1.6784  -12.3551 H   0  0  0  0  0  0  0  0  0  0  0  0
   11.9779   -1.3861  -13.9861 H   0  0  0  0  0  0  0  0  0  0  0  0
   11.4802   -0.0188  -12.9692 H   0  0  0  0  0  0  0  0  0  0  0  0
   13.3699    3.4320   -9.8682 H   0  0  0  0  0  0  0  0  0  0  0  0
   14.7264    4.0653  -10.7862 H   0  0  0  0  0  0  0  0  0  0  0  0
   14.9992    3.4133   -9.1691 H   0  0  0  0  0  0  0  0  0  0  0  0
   17.1478    1.1438  -11.1960 H   0  0  0  0  0  0  0  0  0  0  0  0
   16.8955    3.2521   -9.8672 H   0  0  0  0  0  0  0  0  0  0  0  0
   18.4324    2.6457  -10.2493 H   0  0  0  0  0  0  0  0  0  0  0  0
   18.9187    4.3258  -11.8499 H   0  0  0  0  0  0  0  0  0  0  0  0
   16.1307    5.5167  -11.4804 H   0  0  0  0  0  0  0  0  0  0  0  0
   16.6442    4.6027  -12.9166 H   0  0  0  0  0  0  0  0  0  0  0  0
   17.4317    6.1251  -12.4970 H   0  0  0  0  0  0  0  0  0  0  0  0
   17.6020    5.5007   -9.3531 H   0  0  0  0  0  0  0  0  0  0  0  0
   18.7976    6.3239  -10.3691 H   0  0  0  0  0  0  0  0  0  0  0  0
   19.2492    4.8647   -9.4760 H   0  0  0  0  0  0  0  0  0  0  0  0
   16.6449    0.0897  -13.3778 H   0  0  0  0  0  0  0  0  0  0  0  0
   17.8670    0.4827  -14.5721 H   0  0  0  0  0  0  0  0  0  0  0  0
   16.3769    1.4405  -14.5388 H   0  0  0  0  0  0  0  0  0  0  0  0
   19.9846    1.1873  -14.6639 H   0  0  0  0  0  0  0  0  0  0  0  0
   19.4924    4.1676  -14.0588 H   0  0  0  0  0  0  0  0  0  0  0  0
   18.5284    3.1887  -15.1736 H   0  0  0  0  0  0  0  0  0  0  0  0
   20.2284    3.5316  -15.5317 H   0  0  0  0  0  0  0  0  0  0  0  0
   21.2440    2.2202  -12.3282 H   0  0  0  0  0  0  0  0  0  0  0  0
   23.8994    1.2367  -12.6529 H   0  0  0  0  0  0  0  0  0  0  0  0
   23.3379    4.2537  -12.6982 H   0  0  0  0  0  0  0  0  0  0  0  0
   24.6072    3.4949  -11.7230 H   0  0  0  0  0  0  0  0  0  0  0  0
   22.9285    3.1216  -11.3973 H   0  0  0  0  0  0  0  0  0  0  0  0
   24.3834    1.8337  -15.0942 H   0  0  0  0  0  0  0  0  0  0  0  0
   26.4803    1.2919  -15.6009 H   0  0  0  0  0  0  0  0  0  0  0  0
   25.3168    2.4094  -16.9379 H   0  0  0  0  0  0  0  0  0  0  0  0
   26.8620    3.0026  -17.4820 H   0  0  0  0  0  0  0  0  0  0  0  0
   24.9054    4.5726  -15.7486 H   0  0  0  0  0  0  0  0  0  0  0  0
   27.3097    5.3830  -17.4789 H   0  0  0  0  0  0  0  0  0  0  0  0
   27.1673    5.5549  -15.7195 H   0  0  0  0  0  0  0  0  0  0  0  0
   26.1444    6.5181  -16.7789 H   0  0  0  0  0  0  0  0  0  0  0  0
   25.2355    4.4481  -18.7997 H   0  0  0  0  0  0  0  0  0  0  0  0
   24.1819    5.5734  -17.9230 H   0  0  0  0  0  0  0  0  0  0  0  0
   23.8531    3.8384  -17.8825 H   0  0  0  0  0  0  0  0  0  0  0  0
   28.2667    4.2483  -14.5539 H   0  0  0  0  0  0  0  0  0  0  0  0
   29.8227    3.6295  -15.1350 H   0  0  0  0  0  0  0  0  0  0  0  0
   29.1556    3.0393  -13.5954 H   0  0  0  0  0  0  0  0  0  0  0  0
   30.8621    1.6023  -14.8814 H   0  0  0  0  0  0  0  0  0  0  0  0
   30.4275   -1.2528  -15.9555 H   0  0  0  0  0  0  0  0  0  0  0  0
   32.9628    0.1782  -14.9846 H   0  0  0  0  0  0  0  0  0  0  0  0
   32.6245   -0.3006  -16.6529 H   0  0  0  0  0  0  0  0  0  0  0  0
   32.8526   -1.5358  -15.4168 H   0  0  0  0  0  0  0  0  0  0  0  0
   31.2283   -0.4303  -13.1314 H   0  0  0  0  0  0  0  0  0  0  0  0
   31.1205   -2.0785  -13.7821 H   0  0  0  0  0  0  0  0  0  0  0  0
   29.6643   -1.1207  -13.5926 H   0  0  0  0  0  0  0  0  0  0  0  0
   29.9239    2.2563  -16.9510 H   0  0  0  0  0  0  0  0  0  0  0  0
   28.0814    1.5867  -17.8643 H   0  0  0  0  0  0  0  0  0  0  0  0
   27.6735    1.1845  -20.3811 H   0  0  0  0  0  0  0  0  0  0  0  0
   29.2983    0.5107  -20.4403 H   0  0  0  0  0  0  0  0  0  0  0  0
   28.6052    3.3731  -19.5584 H   0  0  0  0  0  0  0  0  0  0  0  0
   31.2069    3.6792  -20.2239 H   0  0  0  0  0  0  0  0  0  0  0  0
   31.3138    2.0131  -19.6752 H   0  0  0  0  0  0  0  0  0  0  0  0
   30.7112    3.3061  -18.6021 H   0  0  0  0  0  0  0  0  0  0  0  0
   29.9361    2.5224  -22.1780 H   0  0  0  0  0  0  0  0  0  0  0  0
   29.4699    4.1521  -21.6852 H   0  0  0  0  0  0  0  0  0  0  0  0
   28.2173    2.9546  -22.0147 H   0  0  0  0  0  0  0  0  0  0  0  0
   28.8683   -2.0415  -18.4182 H   0  0  0  0  0  0  0  0  0  0  0  0
   27.8562   -1.5259  -19.7885 H   0  0  0  0  0  0  0  0  0  0  0  0
   27.1446   -2.4750  -18.4731 H   0  0  0  0  0  0  0  0  0  0  0  0
   26.1603   -1.1819  -15.4720 H   0  0  0  0  0  0  0  0  0  0  0  0
   25.5781   -2.2672  -16.7298 H   0  0  0  0  0  0  0  0  0  0  0  0
   22.0580   -0.6946  -16.4163 H   0  0  0  0  0  0  0  0  0  0  0  0
   22.9638   -1.8426  -17.4397 H   0  0  0  0  0  0  0  0  0  0  0  0
   23.3410   -0.1094  -17.4355 H   0  0  0  0  0  0  0  0  0  0  0  0
   22.4790   -2.6294  -13.0241 H   0  0  0  0  0  0  0  0  0  0  0  0
   22.0340   -3.0221  -15.5448 H   0  0  0  0  0  0  0  0  0  0  0  0
   19.9960   -2.4016  -16.4528 H   0  0  0  0  0  0  0  0  0  0  0  0
   20.2747   -0.9419  -15.4986 H   0  0  0  0  0  0  0  0  0  0  0  0
   19.1965   -2.2074  -14.8995 H   0  0  0  0  0  0  0  0  0  0  0  0
   21.5031   -4.4102  -13.7531 H   0  0  0  0  0  0  0  0  0  0  0  0
   20.3357   -0.5220  -12.8459 H   0  0  0  0  0  0  0  0  0  0  0  0
  1  2  1  0  0  0  0
  1 86  1  0  0  0  0
  1 87  1  0  0  0  0
  1 88  1  0  0  0  0
  2  3  2  0  0  0  0
  2 89  1  0  0  0  0
  3  4  1  0  0  0  0
  3 90  1  0  0  0  0
  4  5  1  0  0  0  0
  4 91  1  0  0  0  0
  4 92  1  0  0  0  0
  5  6  1  0  0  0  0
  5  7  1  0  0  0  0
  5 93  1  1  0  0  0
  6 94  1  0  0  0  0
  6 95  1  0  0  0  0
  6 96  1  0  0  0  0
  7  8  1  0  0  0  0
  7  9  1  0  0  0  0
  7 97  1  1  0  0  0
  8 98  1  0  0  0  0
  9 10  1  0  0  0  0
  9 84  1  0  0  0  0
  9 99  1  0  0  0  0
 10 11  1  0  0  0  0
 10100  1  0  0  0  0
 11 12  2  0  0  0  0
 11 13  1  0  0  0  0
 13 17  1  0  0  0  0
 13 14  1  0  0  0  0
 13101  1  6  0  0  0
 14 15  1  0  0  0  0
 14 16  1  0  0  0  0
 14102  1  0  0  0  0
 15103  1  0  0  0  0
 15104  1  0  0  0  0
 15105  1  0  0  0  0
 16106  1  0  0  0  0
 16107  1  0  0  0  0
 16108  1  0  0  0  0
 17 18  1  0  0  0  0
 17 19  1  0  0  0  0
 18109  1  0  0  0  0
 18110  1  0  0  0  0
 18111  1  0  0  0  0
 19 20  2  0  0  0  0
 19 21  1  0  0  0  0
 21 26  1  0  0  0  0
 21 22  1  0  0  0  0
 21112  1  6  0  0  0
 22 23  1  0  0  0  0
 22113  1  0  0  0  0
 22114  1  0  0  0  0
 23 24  1  0  0  0  0
 23 25  1  0  0  0  0
 23115  1  0  0  0  0
 24116  1  0  0  0  0
 24117  1  0  0  0  0
 24118  1  0  0  0  0
 25119  1  0  0  0  0
 25120  1  0  0  0  0
 25121  1  0  0  0  0
 26 27  1  0  0  0  0
 26 28  1  0  0  0  0
 27122  1  0  0  0  0
 27123  1  0  0  0  0
 27124  1  0  0  0  0
 28 29  2  0  0  0  0
 28 30  1  0  0  0  0
 30 35  1  0  0  0  0
 30 31  1  0  0  0  0
 30125  1  1  0  0  0
 31 32  1  0  0  0  0
 31126  1  0  0  0  0
 31127  1  0  0  0  0
 32 33  1  0  0  0  0
 32 34  1  0  0  0  0
 32128  1  0  0  0  0
 33129  1  0  0  0  0
 33130  1  0  0  0  0
 33131  1  0  0  0  0
 34132  1  0  0  0  0
 34133  1  0  0  0  0
 34134  1  0  0  0  0
 35 36  1  0  0  0  0
 35 37  1  0  0  0  0
 36135  1  0  0  0  0
 36136  1  0  0  0  0
 36137  1  0  0  0  0
 37 38  2  0  0  0  0
 37 39  1  0  0  0  0
 39 40  1  0  0  0  0
 39 41  1  0  0  0  0
 39138  1  6  0  0  0
 40139  1  0  0  0  0
 40140  1  0  0  0  0
 40141  1  0  0  0  0
 41 42  1  0  0  0  0
 41142  1  0  0  0  0
 42 43  2  0  0  0  0
 42 44  1  0  0  0  0
 44 46  1  0  0  0  0
 44 45  1  0  0  0  0
 44143  1  1  0  0  0
 45144  1  0  0  0  0
 45145  1  0  0  0  0
 45146  1  0  0  0  0
 46 47  1  0  0  0  0
 46147  1  0  0  0  0
 47 48  2  0  0  0  0
 47 49  1  0  0  0  0
 49 50  1  0  0  0  0
 49 54  1  0  0  0  0
 49148  1  6  0  0  0
 50 51  1  0  0  0  0
 50149  1  0  0  0  0
 50150  1  0  0  0  0
 51 52  1  0  0  0  0
 51 53  1  0  0  0  0
 51151  1  0  0  0  0
 52152  1  0  0  0  0
 52153  1  0  0  0  0
 52154  1  0  0  0  0
 53155  1  0  0  0  0
 53156  1  0  0  0  0
 53157  1  0  0  0  0
 54 55  1  0  0  0  0
 54 56  1  0  0  0  0
 55158  1  0  0  0  0
 55159  1  0  0  0  0
 55160  1  0  0  0  0
 56 57  2  0  0  0  0
 56 58  1  0  0  0  0
 58 59  1  0  0  0  0
 58 62  1  0  0  0  0
 58161  1  1  0  0  0
 59 60  1  0  0  0  0
 59 61  1  0  0  0  0
 59162  1  0  0  0  0
 60163  1  0  0  0  0
 60164  1  0  0  0  0
 60165  1  0  0  0  0
 61166  1  0  0  0  0
 61167  1  0  0  0  0
 61168  1  0  0  0  0
 62 63  1  0  0  0  0
 62169  1  0  0  0  0
 63 64  2  0  0  0  0
 63 65  1  0  0  0  0
 65 66  1  0  0  0  0
 65 70  1  0  0  0  0
 65170  1  1  0  0  0
 66 67  1  0  0  0  0
 66171  1  0  0  0  0
 66172  1  0  0  0  0
 67 68  1  0  0  0  0
 67 69  1  0  0  0  0
 67173  1  0  0  0  0
 68174  1  0  0  0  0
 68175  1  0  0  0  0
 68176  1  0  0  0  0
 69177  1  0  0  0  0
 69178  1  0  0  0  0
 69179  1  0  0  0  0
 70 71  1  0  0  0  0
 70 72  1  0  0  0  0
 71180  1  0  0  0  0
 71181  1  0  0  0  0
 71182  1  0  0  0  0
 72 73  2  0  0  0  0
 72 74  1  0  0  0  0
 74 75  1  0  0  0  0
 74183  1  0  0  0  0
 74184  1  0  0  0  0
 75 76  1  0  0  0  0
 75 77  1  0  0  0  0
 76185  1  0  0  0  0
 76186  1  0  0  0  0
 76187  1  0  0  0  0
 77 78  2  0  0  0  0
 77 79  1  0  0  0  0
 79 83  1  0  0  0  0
 79 80  1  0  0  0  0
 79188  1  1  0  0  0
 80 81  1  0  0  0  0
 80 82  1  0  0  0  0
 80189  1  1  0  0  0
 81190  1  0  0  0  0
 81191  1  0  0  0  0
 81192  1  0  0  0  0
 82193  1  0  0  0  0
 83 84  1  0  0  0  0
 83194  1  0  0  0  0
 84 85  2  0  0  0  0
M  END
>  <Energy>
594.284

$$$$