115
 OpenBabel03292021583D

172175  0  0  1  0  0  0  0  0999 V2000
    3.3755   20.1534   16.5557 C   0  0  0  0  0  0  0  0  0  0  0  0
    3.1725   18.6989   16.0798 C   0  0  0  0  0  0  0  0  0  0  0  0
    3.6447   18.2256   14.6323 C   0  0  2  0  0  0  0  0  0  0  0  0
    3.1993   19.3476   13.6700 C   0  0  0  0  0  0  0  0  0  0  0  0
    5.2061   17.8164   14.3513 C   0  0  2  0  0  0  0  0  0  0  0  0
    5.5341   16.5498   13.4001 N   0  0  0  0  0  0  0  0  0  0  0  0
    6.1623   15.3076   13.5823 C   0  0  0  0  0  0  0  0  0  0  0  0
    6.2682   14.9491   14.7486 O   0  0  0  0  0  0  0  0  0  0  0  0
    6.5796   14.1228   12.3184 C   0  0  2  0  0  0  0  0  0  0  0  0
    6.8537   12.7675   13.0273 C   0  0  0  0  0  0  0  0  0  0  0  0
    8.3706   12.5100   12.9422 C   0  0  0  0  0  0  0  0  0  0  0  0
    8.9053   13.6886   12.1517 C   0  0  0  0  0  0  0  0  0  0  0  0
    7.7535   13.9912   11.3216 N   0  0  0  0  0  0  0  0  0  0  0  0
    7.8624   13.2985   10.0389 C   0  0  0  0  0  0  0  0  0  0  0  0
    8.9766   13.0371    9.5587 O   0  0  0  0  0  0  0  0  0  0  0  0
    6.6234   12.7670    9.2585 C   0  0  2  0  0  0  0  0  0  0  0  0
    6.7994   11.8749    7.9585 C   0  0  2  0  0  0  0  0  0  0  0  0
    7.6185   12.5106    6.9657 O   0  0  0  0  0  0  0  0  0  0  0  0
    7.1778   10.4018    7.9079 C   0  0  0  0  0  0  0  0  0  0  0  0
    8.1197    9.8028    8.7381 C   0  0  0  0  0  0  0  0  0  0  0  0
    8.5241    8.4743    8.5177 C   0  0  0  0  0  0  0  0  0  0  0  0
    7.9907    7.7273    7.4674 C   0  0  0  0  0  0  0  0  0  0  0  0
    7.0446    8.3017    6.6296 C   0  0  0  0  0  0  0  0  0  0  0  0
    6.6502    9.6289    6.8461 C   0  0  0  0  0  0  0  0  0  0  0  0
    5.8274   13.9870    8.9593 N   0  0  0  0  0  0  0  0  0  0  0  0
    5.8844   14.5855    7.6318 C   0  0  0  0  0  0  0  0  0  0  0  0
    4.7091   14.1332    9.7060 C   0  0  0  0  0  0  0  0  0  0  0  0
    4.1227   13.1208   10.0831 O   0  0  0  0  0  0  0  0  0  0  0  0
    4.2169   15.5230   10.0982 C   0  0  2  0  0  0  0  0  0  0  0  0
    5.2620   16.7212   10.1832 C   0  0  0  0  0  0  0  0  0  0  0  0
    6.6843   16.8619    9.6496 C   0  0  0  0  0  0  0  0  0  0  0  0
    6.9725   17.3785    8.3881 C   0  0  0  0  0  0  0  0  0  0  0  0
    8.3012   17.5554    7.9548 C   0  0  0  0  0  0  0  0  0  0  0  0
    9.3681   17.2582    8.7918 C   0  0  0  0  0  0  0  0  0  0  0  0
    9.1247   16.8028   10.0791 C   0  0  0  0  0  0  0  0  0  0  0  0
    7.7888   16.6564   10.4878 C   0  0  0  0  0  0  0  0  0  0  0  0
    3.4801   15.3946   11.4745 N   0  0  0  0  0  0  0  0  0  0  0  0
    2.6419   14.2972   11.7957 C   0  0  0  0  0  0  0  0  0  0  0  0
    1.4669   14.3664   11.4233 O   0  0  0  0  0  0  0  0  0  0  0  0
    3.1527   13.2352   12.9096 C   0  0  2  0  0  0  0  0  0  0  0  0
    2.5637   11.7655   12.7533 C   0  0  0  0  0  0  0  0  0  0  0  0
    3.1713   10.7343   13.7236 C   0  0  0  0  0  0  0  0  0  0  0  0
    2.7515   11.1468   11.3623 C   0  0  0  0  0  0  0  0  0  0  0  0
    2.8950   13.8408   14.2866 N   0  0  0  0  0  0  0  0  0  0  0  0
    1.4791   13.9972   14.5878 C   0  0  0  0  0  0  0  0  0  0  0  0
    3.7966   13.5392   15.3442 C   0  0  0  0  0  0  0  0  0  0  0  0
    4.5280   12.5554   15.2151 O   0  0  0  0  0  0  0  0  0  0  0  0
    3.9601   14.4351   16.6779 C   0  0  1  0  0  0  0  0  0  0  0  0
    2.6158   14.5392   17.4596 C   0  0  1  0  0  0  0  0  0  0  0  0
    2.1347   13.1710   17.9629 C   0  0  0  0  0  0  0  0  0  0  0  0
    2.6444   15.5553   18.6166 C   0  0  0  0  0  0  0  0  0  0  0  0
    1.2446   15.8391   19.1643 C   0  0  0  0  0  0  0  0  0  0  0  0
    4.9624   13.8435   17.6217 O   0  0  0  0  0  0  0  0  0  0  0  0
    6.0586   14.4128   18.2313 C   0  0  0  0  0  0  0  0  0  0  0  0
    6.1559   14.3729   19.4596 O   0  0  0  0  0  0  0  0  0  0  0  0
    7.2583   14.8890   17.3553 C   0  0  2  0  0  0  0  0  0  0  0  0
    8.1714   13.7145   16.7824 C   0  0  0  0  0  0  0  0  0  0  0  0
    9.3988   13.3031   17.6033 C   0  0  0  0  0  0  0  0  0  0  0  0
    7.4057   12.4070   16.5713 C   0  0  0  0  0  0  0  0  0  0  0  0
    8.7501   14.1014   15.5170 O   0  0  0  0  0  0  0  0  0  0  0  0
    8.0815   16.0805   17.8151 N   0  0  0  0  0  0  0  0  0  0  0  0
    8.8874   15.9278   19.0155 C   0  0  0  0  0  0  0  0  0  0  0  0
    8.4603   17.0246   16.8391 C   0  0  0  0  0  0  0  0  0  0  0  0
    8.3462   16.7645   15.6329 O   0  0  0  0  0  0  0  0  0  0  0  0
    9.0867   18.3878   17.2739 C   0  0  2  0  0  0  0  0  0  0  0  0
    8.2880   19.1916   18.3204 C   0  0  0  0  0  0  0  0  0  0  0  0
    8.8709   20.5447   18.7767 C   0  0  0  0  0  0  0  0  0  0  0  0
    7.8915   21.2136   19.7525 C   0  0  0  0  0  0  0  0  0  0  0  0
   10.2337   20.4000   19.4505 C   0  0  0  0  0  0  0  0  0  0  0  0
    9.6220   19.1956   16.1383 N   0  0  0  0  0  0  0  0  0  0  0  0
    9.2145   19.7713   14.9773 C   0  0  0  0  0  0  0  0  0  0  0  0
   10.0868   20.4858   14.4568 O   0  0  0  0  0  0  0  0  0  0  0  0
    7.8610   19.5227   14.2105 C   0  0  2  0  0  0  0  0  0  0  0  0
    7.7793   20.4109   12.9069 C   0  0  0  0  0  0  0  0  0  0  0  0
    6.3921   20.8839   12.4362 C   0  0  0  0  0  0  0  0  0  0  0  0
    8.3744   19.6140   11.7533 C   0  0  0  0  0  0  0  0  0  0  0  0
    6.7082   19.7089   15.0708 N   0  0  0  0  0  0  0  0  0  0  0  0
    6.6259   20.9928   15.7732 C   0  0  0  0  0  0  0  0  0  0  0  0
    6.0387   18.5427   15.4786 C   0  0  0  0  0  0  0  0  0  0  0  0
    5.8999   18.2367   16.6621 O   0  0  0  0  0  0  0  0  0  0  0  0
    2.7745   20.3448   17.4562 H   0  0  0  0  0  0  0  0  0  0  0  0
    3.0701   20.9069   15.8235 H   0  0  0  0  0  0  0  0  0  0  0  0
    4.4000   20.3559   16.8581 H   0  0  0  0  0  0  0  0  0  0  0  0
    2.0819   18.5610   16.1097 H   0  0  0  0  0  0  0  0  0  0  0  0
    3.5598   18.0293   16.8490 H   0  0  0  0  0  0  0  0  0  0  0  0
    3.0514   17.3312   14.4142 H   0  0  0  0  0  0  0  0  0  0  0  0
    3.8270   20.2387   13.7850 H   0  0  0  0  0  0  0  0  0  0  0  0
    2.1650   19.6585   13.8672 H   0  0  0  0  0  0  0  0  0  0  0  0
    3.2602   19.0219   12.6278 H   0  0  0  0  0  0  0  0  0  0  0  0
    5.4139   18.5073   13.5306 H   0  0  0  0  0  0  0  0  0  0  0  0
    4.7483   16.4182   12.7798 H   0  0  0  0  0  0  0  0  0  0  0  0
    5.6752   14.0402   11.7539 H   0  0  0  0  0  0  0  0  0  0  0  0
    6.3333   11.9630   12.4931 H   0  0  0  0  0  0  0  0  0  0  0  0
    6.5154   12.7288   14.0483 H   0  0  0  0  0  0  0  0  0  0  0  0
    8.5388   11.5695   12.4019 H   0  0  0  0  0  0  0  0  0  0  0  0
    8.8670   12.4009   13.9050 H   0  0  0  0  0  0  0  0  0  0  0  0
    9.8154   13.4250   11.6033 H   0  0  0  0  0  0  0  0  0  0  0  0
    9.1215   14.5544   12.7809 H   0  0  0  0  0  0  0  0  0  0  0  0
    6.1126   12.1264    9.9890 H   0  0  0  0  0  0  0  0  0  0  0  0
    5.7845   11.8658    7.5366 H   0  0  0  0  0  0  0  0  0  0  0  0
    8.5362   12.4437    7.2975 H   0  0  0  0  0  0  0  0  0  0  0  0
    8.5948   10.3615    9.5401 H   0  0  0  0  0  0  0  0  0  0  0  0
    9.2776    8.0259    9.1612 H   0  0  0  0  0  0  0  0  0  0  0  0
    8.3246    6.7069    7.2927 H   0  0  0  0  0  0  0  0  0  0  0  0
    6.6347    7.7347    5.7953 H   0  0  0  0  0  0  0  0  0  0  0  0
    5.9384   10.0634    6.1466 H   0  0  0  0  0  0  0  0  0  0  0  0
    6.9188   14.8124    7.3688 H   0  0  0  0  0  0  0  0  0  0  0  0
    5.2700   15.4865    7.5905 H   0  0  0  0  0  0  0  0  0  0  0  0
    5.4405   13.9076    6.8971 H   0  0  0  0  0  0  0  0  0  0  0  0
    3.4452   15.7813    9.3621 H   0  0  0  0  0  0  0  0  0  0  0  0
    4.7209   17.6418    9.9072 H   0  0  0  0  0  0  0  0  0  0  0  0
    5.4303   16.8980   11.2268 H   0  0  0  0  0  0  0  0  0  0  0  0
    6.1706   17.6619    7.7119 H   0  0  0  0  0  0  0  0  0  0  0  0
    8.5087   17.9507    6.9641 H   0  0  0  0  0  0  0  0  0  0  0  0
   10.4000   17.3852    8.4597 H   0  0  0  0  0  0  0  0  0  0  0  0
    9.9185   16.6007   10.7659 H   0  0  0  0  0  0  0  0  0  0  0  0
    7.6466   16.4137   11.5358 H   0  0  0  0  0  0  0  0  0  0  0  0
    2.7920   16.1400   11.4070 H   0  0  0  0  0  0  0  0  0  0  0  0
    4.2269   13.1489   12.8035 H   0  0  0  0  0  0  0  0  0  0  0  0
    1.4841   11.7917   12.9394 H   0  0  0  0  0  0  0  0  0  0  0  0
    4.2682   10.7332   13.6669 H   0  0  0  0  0  0  0  0  0  0  0  0
    2.8540    9.7132   13.4789 H   0  0  0  0  0  0  0  0  0  0  0  0
    2.8545   10.9098   14.7539 H   0  0  0  0  0  0  0  0  0  0  0  0
    3.8157   11.0078   11.1320 H   0  0  0  0  0  0  0  0  0  0  0  0
    2.2701   11.7388   10.5839 H   0  0  0  0  0  0  0  0  0  0  0  0
    2.2969   10.1491   11.3162 H   0  0  0  0  0  0  0  0  0  0  0  0
    0.8512   13.7934   13.7166 H   0  0  0  0  0  0  0  0  0  0  0  0
    1.2830   15.0254   14.8872 H   0  0  0  0  0  0  0  0  0  0  0  0
    1.1848   13.2799   15.3581 H   0  0  0  0  0  0  0  0  0  0  0  0
    4.3098   15.4280   16.3795 H   0  0  0  0  0  0  0  0  0  0  0  0
    1.8612   14.9304   16.7791 H   0  0  0  0  0  0  0  0  0  0  0  0
    2.6259   12.8934   18.9012 H   0  0  0  0  0  0  0  0  0  0  0  0
    2.3199   12.3726   17.2385 H   0  0  0  0  0  0  0  0  0  0  0  0
    1.0539   13.1876   18.1413 H   0  0  0  0  0  0  0  0  0  0  0  0
    3.0632   16.5000   18.2623 H   0  0  0  0  0  0  0  0  0  0  0  0
    3.2871   15.2035   19.4294 H   0  0  0  0  0  0  0  0  0  0  0  0
    0.5627   16.1555   18.3660 H   0  0  0  0  0  0  0  0  0  0  0  0
    1.2804   16.6386   19.9099 H   0  0  0  0  0  0  0  0  0  0  0  0
    0.8143   14.9557   19.6463 H   0  0  0  0  0  0  0  0  0  0  0  0
    6.7038   15.3706   16.5714 H   0  0  0  0  0  0  0  0  0  0  0  0
    9.8858   12.4336   17.1368 H   0  0  0  0  0  0  0  0  0  0  0  0
    9.1389   13.0220   18.6256 H   0  0  0  0  0  0  0  0  0  0  0  0
   10.1748   14.0719   17.5962 H   0  0  0  0  0  0  0  0  0  0  0  0
    7.9622   11.6959   15.9511 H   0  0  0  0  0  0  0  0  0  0  0  0
    6.4869   12.5995   16.0495 H   0  0  0  0  0  0  0  0  0  0  0  0
    7.1515   11.9153   17.5161 H   0  0  0  0  0  0  0  0  0  0  0  0
    8.6422   15.0726   15.4243 H   0  0  0  0  0  0  0  0  0  0  0  0
    8.6219   15.0236   19.5609 H   0  0  0  0  0  0  0  0  0  0  0  0
    8.7676   16.7749   19.6825 H   0  0  0  0  0  0  0  0  0  0  0  0
    9.9459   15.8844   18.7225 H   0  0  0  0  0  0  0  0  0  0  0  0
   10.0142   18.0796   17.7737 H   0  0  0  0  0  0  0  0  0  0  0  0
    7.2781   19.3683   17.9705 H   0  0  0  0  0  0  0  0  0  0  0  0
    8.1390   18.5842   19.2163 H   0  0  0  0  0  0  0  0  0  0  0  0
    8.9770   21.2045   17.9076 H   0  0  0  0  0  0  0  0  0  0  0  0
    7.7609   20.6118   20.6591 H   0  0  0  0  0  0  0  0  0  0  0  0
    6.9061   21.3447   19.2931 H   0  0  0  0  0  0  0  0  0  0  0  0
    8.2519   22.2031   20.0534 H   0  0  0  0  0  0  0  0  0  0  0  0
   10.1834   19.7222   20.3099 H   0  0  0  0  0  0  0  0  0  0  0  0
   10.5905   21.3719   19.8105 H   0  0  0  0  0  0  0  0  0  0  0  0
   10.9812   20.0126   18.7545 H   0  0  0  0  0  0  0  0  0  0  0  0
   10.5512   19.5504   16.3285 H   0  0  0  0  0  0  0  0  0  0  0  0
    7.8845   18.4715   13.9046 H   0  0  0  0  0  0  0  0  0  0  0  0
    8.3800   21.3180   13.0365 H   0  0  0  0  0  0  0  0  0  0  0  0
    5.7098   20.0528   12.2450 H   0  0  0  0  0  0  0  0  0  0  0  0
    6.4779   21.4219   11.4831 H   0  0  0  0  0  0  0  0  0  0  0  0
    5.9247   21.5725   13.1423 H   0  0  0  0  0  0  0  0  0  0  0  0
    9.2904   19.0908   12.0410 H   0  0  0  0  0  0  0  0  0  0  0  0
    8.5887   20.2433   10.8852 H   0  0  0  0  0  0  0  0  0  0  0  0
    7.6309   18.8799   11.4482 H   0  0  0  0  0  0  0  0  0  0  0  0
    7.4793   21.6378   15.5340 H   0  0  0  0  0  0  0  0  0  0  0  0
    6.5491   20.8788   16.8500 H   0  0  0  0  0  0  0  0  0  0  0  0
    5.7287   21.5143   15.4246 H   0  0  0  0  0  0  0  0  0  0  0  0
  1  2  1  0  0  0  0
  1 81  1  0  0  0  0
  1 82  1  0  0  0  0
  1 83  1  0  0  0  0
  2 84  1  0  0  0  0
  2 85  1  0  0  0  0
  3  4  1  0  0  0  0
  3  2  1  0  0  0  0
  3 86  1  1  0  0  0
  4 87  1  0  0  0  0
  4 88  1  0  0  0  0
  4 89  1  0  0  0  0
  5  6  1  0  0  0  0
  5 79  1  0  0  0  0
  5  3  1  0  0  0  0
  5 90  1  6  0  0  0
  6  7  1  0  0  0  0
  6 91  1  0  0  0  0
  7  8  2  0  0  0  0
  7  9  1  0  0  0  0
  9 10  1  0  0  0  0
  9 13  1  0  0  0  0
  9 92  1  6  0  0  0
 10 11  1  0  0  0  0
 10 93  1  0  0  0  0
 10 94  1  0  0  0  0
 11 12  1  0  0  0  0
 11 95  1  0  0  0  0
 11 96  1  0  0  0  0
 12 13  1  0  0  0  0
 12 97  1  0  0  0  0
 12 98  1  0  0  0  0
 13 14  1  0  0  0  0
 14 15  2  0  0  0  0
 14 16  1  0  0  0  0
 16 25  1  0  0  0  0
 16 17  1  0  0  0  0
 16 99  1  1  0  0  0
 17 19  1  0  0  0  0
 17 18  1  0  0  0  0
 17100  1  1  0  0  0
 18101  1  0  0  0  0
 19 20  1  0  0  0  0
 19 24  2  0  0  0  0
 20 21  2  0  0  0  0
 20102  1  0  0  0  0
 21 22  1  0  0  0  0
 21103  1  0  0  0  0
 22 23  2  0  0  0  0
 22104  1  0  0  0  0
 23 24  1  0  0  0  0
 23105  1  0  0  0  0
 24106  1  0  0  0  0
 25 26  1  0  0  0  0
 25 27  1  0  0  0  0
 26107  1  0  0  0  0
 26108  1  0  0  0  0
 26109  1  0  0  0  0
 27 28  2  0  0  0  0
 27 29  1  0  0  0  0
 29 37  1  0  0  0  0
 29 30  1  0  0  0  0
 29110  1  6  0  0  0
 30 31  1  0  0  0  0
 30111  1  0  0  0  0
 30112  1  0  0  0  0
 31 32  1  0  0  0  0
 31 36  2  0  0  0  0
 32 33  2  0  0  0  0
 32113  1  0  0  0  0
 33 34  1  0  0  0  0
 33114  1  0  0  0  0
 34 35  2  0  0  0  0
 34115  1  0  0  0  0
 35 36  1  0  0  0  0
 35116  1  0  0  0  0
 36117  1  0  0  0  0
 37 38  1  0  0  0  0
 37118  1  0  0  0  0
 38 39  2  0  0  0  0
 38 40  1  0  0  0  0
 40 44  1  0  0  0  0
 40 41  1  0  0  0  0
 40119  1  6  0  0  0
 41 42  1  0  0  0  0
 41 43  1  0  0  0  0
 41120  1  0  0  0  0
 42121  1  0  0  0  0
 42122  1  0  0  0  0
 42123  1  0  0  0  0
 43124  1  0  0  0  0
 43125  1  0  0  0  0
 43126  1  0  0  0  0
 44 45  1  0  0  0  0
 44 46  1  0  0  0  0
 45127  1  0  0  0  0
 45128  1  0  0  0  0
 45129  1  0  0  0  0
 46 47  2  0  0  0  0
 46 48  1  0  0  0  0
 48 49  1  0  0  0  0
 48 53  1  0  0  0  0
 48130  1  6  0  0  0
 49 50  1  0  0  0  0
 49 51  1  0  0  0  0
 49131  1  6  0  0  0
 50132  1  0  0  0  0
 50133  1  0  0  0  0
 50134  1  0  0  0  0
 51 52  1  0  0  0  0
 51135  1  0  0  0  0
 51136  1  0  0  0  0
 52137  1  0  0  0  0
 52138  1  0  0  0  0
 52139  1  0  0  0  0
 53 54  1  0  0  0  0
 54 55  2  0  0  0  0
 54 56  1  0  0  0  0
 56 61  1  0  0  0  0
 56 57  1  0  0  0  0
 56140  1  6  0  0  0
 57 58  1  0  0  0  0
 57 59  1  0  0  0  0
 57 60  1  0  0  0  0
 58141  1  0  0  0  0
 58142  1  0  0  0  0
 58143  1  0  0  0  0
 59144  1  0  0  0  0
 59145  1  0  0  0  0
 59146  1  0  0  0  0
 60147  1  0  0  0  0
 61 62  1  0  0  0  0
 61 63  1  0  0  0  0
 62148  1  0  0  0  0
 62149  1  0  0  0  0
 62150  1  0  0  0  0
 63 64  2  0  0  0  0
 63 65  1  0  0  0  0
 65 70  1  0  0  0  0
 65 66  1  0  0  0  0
 65151  1  1  0  0  0
 66 67  1  0  0  0  0
 66152  1  0  0  0  0
 66153  1  0  0  0  0
 67 68  1  0  0  0  0
 67 69  1  0  0  0  0
 67154  1  0  0  0  0
 68155  1  0  0  0  0
 68156  1  0  0  0  0
 68157  1  0  0  0  0
 69158  1  0  0  0  0
 69159  1  0  0  0  0
 69160  1  0  0  0  0
 70 71  1  0  0  0  0
 70161  1  0  0  0  0
 71 72  2  0  0  0  0
 71 73  1  0  0  0  0
 73 77  1  0  0  0  0
 73 74  1  0  0  0  0
 73162  1  6  0  0  0
 74 75  1  0  0  0  0
 74 76  1  0  0  0  0
 74163  1  0  0  0  0
 75164  1  0  0  0  0
 75165  1  0  0  0  0
 75166  1  0  0  0  0
 76167  1  0  0  0  0
 76168  1  0  0  0  0
 76169  1  0  0  0  0
 77 78  1  0  0  0  0
 77 79  1  0  0  0  0
 78170  1  0  0  0  0
 78171  1  0  0  0  0
 78172  1  0  0  0  0
 79 80  2  0  0  0  0
M  END
>  <Energy>
584.808

$$$$