118708523
  -OEChem-03242010103D

 44 46  0     0  0  0  0  0  0999 V2000
    2.2343    2.4651   -0.6718 S   0  0  0  0  0  0  0  0  0  0  0  0
    0.3015    0.8102    2.4163 F   0  0  0  0  0  0  0  0  0  0  0  0
    3.4830    3.0367   -0.2036 O   0  0  0  0  0  0  0  0  0  0  0  0
    1.7299    2.8152   -1.9857 O   0  0  0  0  0  0  0  0  0  0  0  0
    4.4055   -1.8068    1.1478 O   0  0  0  0  0  0  0  0  0  0  0  0
    2.8533   -3.4219   -0.4983 O   0  0  0  0  0  0  0  0  0  0  0  0
    1.0161    2.7283    0.5178 N   0  0  0  0  0  0  0  0  0  0  0  0
   -6.1417   -0.2512   -0.5841 N   0  0  0  0  0  0  0  0  0  0  0  0
    2.4223    0.7060   -0.6170 C   0  0  0  0  0  0  0  0  0  0  0  0
   -0.2066    1.9972    0.4232 C   0  0  0  0  0  0  0  0  0  0  0  0
    3.3492    0.1301    0.2520 C   0  0  0  0  0  0  0  0  0  0  0  0
   -2.5962    0.5700    0.2340 C   0  0  0  0  0  0  0  0  0  0  0  0
    1.6434   -0.1046   -1.4427 C   0  0  0  0  0  0  0  0  0  0  0  0
   -0.5301    1.0470    1.3919 C   0  0  0  0  0  0  0  0  0  0  0  0
   -1.0780    2.2338   -0.6400 C   0  0  0  0  0  0  0  0  0  0  0  0
    3.4969   -1.2563    0.2951 C   0  0  0  0  0  0  0  0  0  0  0  0
   -1.7249    0.3335    1.2973 C   0  0  0  0  0  0  0  0  0  0  0  0
   -2.2727    1.5201   -0.7347 C   0  0  0  0  0  0  0  0  0  0  0  0
    2.7182   -2.0668   -0.5309 C   0  0  0  0  0  0  0  0  0  0  0  0
    1.7914   -1.4910   -1.3999 C   0  0  0  0  0  0  0  0  0  0  0  0
   -3.8351   -0.1711    0.1355 C   0  0  0  0  0  0  0  0  0  0  0  0
   -3.9383   -1.4645    0.6352 C   0  0  0  0  0  0  0  0  0  0  0  0
   -4.9556    0.3855   -0.4598 C   0  0  0  0  0  0  0  0  0  0  0  0
   -5.1421   -2.1520    0.5259 C   0  0  0  0  0  0  0  0  0  0  0  0
    5.1612   -0.9082    1.9577 C   0  0  0  0  0  0  0  0  0  0  0  0
   -6.2041   -1.5067   -0.0866 C   0  0  0  0  0  0  0  0  0  0  0  0
    2.0192   -4.1775   -1.3745 C   0  0  0  0  0  0  0  0  0  0  0  0
    1.3582    2.8608    1.4788 H   0  0  0  0  0  0  0  0  0  0  0  0
    3.9227    0.8007    0.8810 H   0  0  0  0  0  0  0  0  0  0  0  0
    0.9172    0.3222   -2.1286 H   0  0  0  0  0  0  0  0  0  0  0  0
   -0.8490    2.9774   -1.3980 H   0  0  0  0  0  0  0  0  0  0  0  0
   -1.9475   -0.3783    2.0874 H   0  0  0  0  0  0  0  0  0  0  0  0
   -2.9099    1.7196   -1.5919 H   0  0  0  0  0  0  0  0  0  0  0  0
    1.1531   -2.0571   -2.0694 H   0  0  0  0  0  0  0  0  0  0  0  0
   -3.1001   -1.9835    1.0914 H   0  0  0  0  0  0  0  0  0  0  0  0
   -4.9748    1.3976   -0.8519 H   0  0  0  0  0  0  0  0  0  0  0  0
   -5.2442   -3.1634    0.9023 H   0  0  0  0  0  0  0  0  0  0  0  0
    5.8342   -1.5167    2.5710 H   0  0  0  0  0  0  0  0  0  0  0  0
    4.5200   -0.3509    2.6492 H   0  0  0  0  0  0  0  0  0  0  0  0
    5.7935   -0.2510    1.3509 H   0  0  0  0  0  0  0  0  0  0  0  0
   -7.1640   -2.0002   -0.1982 H   0  0  0  0  0  0  0  0  0  0  0  0
    0.9589   -4.0526   -1.1298 H   0  0  0  0  0  0  0  0  0  0  0  0
    2.2336   -3.9570   -2.4258 H   0  0  0  0  0  0  0  0  0  0  0  0
    2.2593   -5.2341   -1.2164 H   0  0  0  0  0  0  0  0  0  0  0  0
  1  3  2  0  0  0  0
  1  4  2  0  0  0  0
  1  7  1  0  0  0  0
  1  9  1  0  0  0  0
  2 14  1  0  0  0  0
  5 16  1  0  0  0  0
  5 25  1  0  0  0  0
  6 19  1  0  0  0  0
  6 27  1  0  0  0  0
  7 10  1  0  0  0  0
  7 28  1  0  0  0  0
  8 23  1  0  0  0  0
  8 26  2  0  0  0  0
  9 11  2  0  0  0  0
  9 13  1  0  0  0  0
 10 14  2  0  0  0  0
 10 15  1  0  0  0  0
 11 16  1  0  0  0  0
 11 29  1  0  0  0  0
 12 17  2  0  0  0  0
 12 18  1  0  0  0  0
 12 21  1  0  0  0  0
 13 20  2  0  0  0  0
 13 30  1  0  0  0  0
 14 17  1  0  0  0  0
 15 18  2  0  0  0  0
 15 31  1  0  0  0  0
 16 19  2  0  0  0  0
 17 32  1  0  0  0  0
 18 33  1  0  0  0  0
 19 20  1  0  0  0  0
 20 34  1  0  0  0  0
 21 22  1  0  0  0  0
 21 23  2  0  0  0  0
 22 24  2  0  0  0  0
 22 35  1  0  0  0  0
 23 36  1  0  0  0  0
 24 26  1  0  0  0  0
 24 37  1  0  0  0  0
 25 38  1  0  0  0  0
 25 39  1  0  0  0  0
 25 40  1  0  0  0  0
 26 41  1  0  0  0  0
 27 42  1  0  0  0  0
 27 43  1  0  0  0  0
 27 44  1  0  0  0  0
M  END
> <PUBCHEM_COMPOUND_CID>
118708523

> <PUBCHEM_CONFORMER_RMSD>
0.8

> <PUBCHEM_CONFORMER_DIVERSEORDER>
5
81
44
73
112
57
119
54
91
45
102
69
88
51
117
41
103
106
48
63
93
90
74
101
59
92
116
14
56
25
75
15
37
89
65
7
110
11
120
36
19
22
79
1
100
28
31
86
78
115
10
96
104
95
34
24
80
2
47
107
8
62
21
50
113
6
97
3
94
26
33
4
109
98
12
53
61
20
67
84
71
16
72
13
30
114
58
17
83
9
52
118
55
27
46
68
18
82
40
66
87
85
99
29
23
108
43
39
35
64
76
42
105
49
32
77
70
38
60
111

> <PUBCHEM_MMFF94_PARTIAL_CHARGES>
36
1 1.45
10 0.2
11 -0.15
13 -0.15
14 0.19
15 -0.15
16 0.08
17 -0.15
18 -0.15
19 0.08
2 -0.19
20 -0.15
22 -0.15
23 0.16
24 -0.15
25 0.28
26 0.16
27 0.28
28 0.42
29 0.15
3 -0.65
30 0.15
31 0.15
32 0.15
33 0.15
34 0.15
35 0.15
36 0.15
37 0.15
4 -0.65
41 0.15
5 -0.36
6 -0.36
7 -0.76
8 -0.62
9 -0.01

> <PUBCHEM_EFFECTIVE_ROTOR_COUNT>
6

> <PUBCHEM_PHARMACOPHORE_FEATURES>
9
1 3 acceptor
1 4 acceptor
1 5 acceptor
1 6 acceptor
1 7 donor
1 8 acceptor
6 10 12 14 15 17 18 rings
6 8 21 22 23 24 26 rings
6 9 11 13 16 19 20 rings

> <PUBCHEM_HEAVY_ATOM_COUNT>
27

> <PUBCHEM_ATOM_DEF_STEREO_COUNT>
0

> <PUBCHEM_ATOM_UDEF_STEREO_COUNT>
0

> <PUBCHEM_BOND_DEF_STEREO_COUNT>
0

> <PUBCHEM_BOND_UDEF_STEREO_COUNT>
0

> <PUBCHEM_ISOTOPIC_ATOM_COUNT>
0

> <PUBCHEM_COMPONENT_COUNT>
1

> <PUBCHEM_CACTVS_TAUTO_COUNT>
4

> <PUBCHEM_CONFORMER_ID>
0713592B00000005

> <PUBCHEM_MMFF94_ENERGY>
91.1143

> <PUBCHEM_FEATURE_SELFOVERLAP>
45.696

> <PUBCHEM_SHAPE_FINGERPRINT>
10190206 1 8429761681727376618
10764073 3 11564133680985477670
10871710 139 9190572497508644030
11595378 159 14979688671575955459
11828532 37 17168429376427313491
11963148 33 17757831508959430651
12107183 9 17983596113023404105
12596602 18 15339113559508435603
13083527 12 18410290303057818776
14251751 18 18333725802151450163
14341114 328 14979660105368622218
1454969 45 18409732864042953246
14659021 117 17328587224567622358
15183329 4 18411986850042744165
15250474 111 18130219484701391983
17134984 74 18127127705180030863
17492 89 18340208470826617423
1979834 28 18060139829665038335
20567600 70 18333728026881349130
20626108 58 18260823766003592712
20645477 70 18335985358602257829
20775530 9 18052554170122541855
21285901 2 17894908568475857829
21315764 371 15913046551732948767
23559900 14 18335422395795524765
23572383 38 18267012861085079567
2637199 183 8790876398127923200
3004659 81 18335706052536331599
345986 75 17489598831397115035
392239 28 17059185139022181842
4340502 62 17700977892452510792
439807 62 18115590491178881107
44802255 64 15943782429115188996
460360 51 18265072296524826937
46194498 28 18040718108185813125
463206 1 18269552896285900335
513532 50 13984661499030331182
57527573 199 15467442289996694053
613672 6 18194951963911079639
633830 44 7781214622690192739
6433294 58 18339930410776350383
7399639 24 18193827361269860053

> <PUBCHEM_SHAPE_MULTIPOLES>
518.78
11.51
3.98
1.59
14.57
1.56
0.36
7.18
1.61
-3.87
-1.51
-1.39
-0.02
0.08

> <PUBCHEM_SHAPE_SELFOVERLAP>
1114.367

> <PUBCHEM_SHAPE_VOLUME>
290.4

> <PUBCHEM_COORDINATE_TYPE>
2
5
10

$$$$