116
 OpenBabel03292021593D

196196  0  0  1  0  0  0  0  0999 V2000
   17.2211   -3.6050    5.7190 C   0  0  0  0  0  0  0  0  0  0  0  0
   18.6261   -3.0605    5.5343 C   0  0  0  0  0  0  0  0  0  0  0  0
   18.6292   -1.5975    5.1984 C   0  0  0  0  0  0  0  0  0  0  0  0
   19.2547   -0.6559    5.9243 C   0  0  0  0  0  0  0  0  0  0  0  0
   19.4075    0.7652    5.4548 C   0  0  0  0  0  0  0  0  0  0  0  0
   18.7810    1.8527    6.3548 C   0  0  1  0  0  0  0  0  0  0  0  0
   19.4504    1.8463    7.7436 C   0  0  0  0  0  0  0  0  0  0  0  0
   18.9127    3.2506    5.6835 C   0  0  1  0  0  0  0  0  0  0  0  0
   18.4390    4.2706    6.5864 O   0  0  0  0  0  0  0  0  0  0  0  0
   18.2321    3.4009    4.2836 C   0  0  2  0  0  0  0  0  0  0  0  0
   18.5618    4.7116    3.7082 N   0  0  0  0  0  0  0  0  0  0  0  0
   19.7454    4.8856    3.0181 C   0  0  0  0  0  0  0  0  0  0  0  0
   20.4944    3.9448    2.7571 O   0  0  0  0  0  0  0  0  0  0  0  0
   20.1501    6.3572    2.7847 C   0  0  1  0  0  0  0  0  0  0  0  0
   20.8588    6.6777    4.0180 N   0  0  0  0  0  0  0  0  0  0  0  0
   20.2528    7.2275    5.1265 C   0  0  0  0  0  0  0  0  0  0  0  0
   19.0597    7.5185    5.1414 O   0  0  0  0  0  0  0  0  0  0  0  0
   21.2130    7.4560    6.3272 C   0  0  2  0  0  0  0  0  0  0  0  0
   21.0578    8.8582    6.9826 C   0  0  0  0  0  0  0  0  0  0  0  0
   21.4993   10.1212    6.1966 C   0  0  0  0  0  0  0  0  0  0  0  0
   20.6984   10.3758    4.9184 C   0  0  0  0  0  0  0  0  0  0  0  0
   21.4247   11.3672    7.0841 C   0  0  0  0  0  0  0  0  0  0  0  0
   22.6283    7.1106    6.0264 N   0  0  0  0  0  0  0  0  0  0  0  0
   23.2826    7.8722    4.9925 C   0  0  0  0  0  0  0  0  0  0  0  0
   23.2864    6.1298    6.7739 C   0  0  0  0  0  0  0  0  0  0  0  0
   22.6481    5.4022    7.5384 O   0  0  0  0  0  0  0  0  0  0  0  0
   24.8408    5.8859    6.5959 C   0  0  2  0  0  0  0  0  0  0  0  0
   25.4999    5.5391    7.9630 C   0  0  0  0  0  0  0  0  0  0  0  0
   25.6956    6.7168    8.9570 C   0  0  0  0  0  0  0  0  0  0  0  0
   24.4044    7.2896    9.5345 C   0  0  0  0  0  0  0  0  0  0  0  0
   26.6359    6.2952   10.0887 C   0  0  0  0  0  0  0  0  0  0  0  0
   25.6506    6.8992    5.9395 N   0  0  0  0  0  0  0  0  0  0  0  0
   26.0845    6.8744    4.6374 C   0  0  0  0  0  0  0  0  0  0  0  0
   25.9195    5.9148    3.8870 O   0  0  0  0  0  0  0  0  0  0  0  0
   26.8704    8.1427    4.2006 C   0  0  1  0  0  0  0  0  0  0  0  0
   26.2539    9.4882    4.5933 C   0  0  0  0  0  0  0  0  0  0  0  0
   28.2338    7.9829    4.6755 N   0  0  0  0  0  0  0  0  0  0  0  0
   28.5485    8.0141    6.0180 C   0  0  0  0  0  0  0  0  0  0  0  0
   27.7335    8.3124    6.8860 O   0  0  0  0  0  0  0  0  0  0  0  0
   30.0156    7.7711    6.3341 C   0  0  2  0  0  0  0  0  0  0  0  0
   30.7717    9.0574    6.0378 C   0  0  0  0  0  0  0  0  0  0  0  0
   30.5062    6.6480    5.5357 N   0  0  0  0  0  0  0  0  0  0  0  0
   31.5123    5.8318    6.0138 C   0  0  0  0  0  0  0  0  0  0  0  0
   32.0313    6.0077    7.1139 O   0  0  0  0  0  0  0  0  0  0  0  0
   31.8414    4.6300    5.1009 C   0  0  1  0  0  0  0  0  0  0  0  0
   33.3362    4.2994    5.2390 C   0  0  0  0  0  0  0  0  0  0  0  0
   33.8496    3.1560    4.3477 C   0  0  0  0  0  0  0  0  0  0  0  0
   33.6822    3.4263    2.8509 C   0  0  0  0  0  0  0  0  0  0  0  0
   35.3303    2.8997    4.6497 C   0  0  0  0  0  0  0  0  0  0  0  0
   30.9944    3.5175    5.5173 N   0  0  0  0  0  0  0  0  0  0  0  0
   30.3179    2.6898    4.6520 C   0  0  0  0  0  0  0  0  0  0  0  0
   30.4199    2.8132    3.4319 O   0  0  0  0  0  0  0  0  0  0  0  0
   29.4546    1.5499    5.2939 C   0  0  2  0  0  0  0  0  0  0  0  0
   28.9755    1.8979    6.6567 N   0  0  0  0  0  0  0  0  0  0  0  0
   29.8047    1.9489    7.7625 C   0  0  0  0  0  0  0  0  0  0  0  0
   31.0017    1.6996    7.6566 O   0  0  0  0  0  0  0  0  0  0  0  0
   29.1437    2.3437    9.1107 C   0  0  1  0  0  0  0  0  0  0  0  0
   28.6236    1.0450    9.7822 C   0  0  0  0  0  0  0  0  0  0  0  0
   29.6706   -0.0533   10.0815 C   0  0  0  0  0  0  0  0  0  0  0  0
   30.7896    0.3877   11.0208 C   0  0  0  0  0  0  0  0  0  0  0  0
   28.9794   -1.2759   10.6907 C   0  0  0  0  0  0  0  0  0  0  0  0
   29.9428    3.2217   10.0098 N   0  0  0  0  0  0  0  0  0  0  0  0
   31.2507    3.7508    9.6363 C   0  0  0  0  0  0  0  0  0  0  0  0
   29.4075    3.6690   11.2059 C   0  0  0  0  0  0  0  0  0  0  0  0
   28.2752    3.4587   11.6168 O   0  0  0  0  0  0  0  0  0  0  0  0
   30.0786    0.1256    5.2102 C   0  0  0  0  0  0  0  0  0  0  0  0
   29.0396   -0.9450    5.5839 C   0  0  0  0  0  0  0  0  0  0  0  0
   30.6358   -0.2205    3.8234 C   0  0  0  0  0  0  0  0  0  0  0  0
   21.0966    6.5419    1.5700 C   0  0  0  0  0  0  0  0  0  0  0  0
   20.4467    6.0692    0.2675 C   0  0  0  0  0  0  0  0  0  0  0  0
   21.5399    8.0025    1.3804 C   0  0  0  0  0  0  0  0  0  0  0  0
   16.7033    3.2964    4.4363 C   0  0  0  0  0  0  0  0  0  0  0  0
   16.0624    4.2184    4.9483 O   0  0  0  0  0  0  0  0  0  0  0  0
   16.1166    2.1035    4.0769 N   0  0  0  0  0  0  0  0  0  0  0  0
   14.6932    1.8498    4.3484 C   0  0  1  0  0  0  0  0  0  0  0  0
   13.7580    2.4378    3.2763 C   0  0  0  0  0  0  0  0  0  0  0  0
   13.8970    1.8814    1.8654 C   0  0  0  0  0  0  0  0  0  0  0  0
   14.4888    0.3306    4.5631 C   0  0  0  0  0  0  0  0  0  0  0  0
   14.8901   -0.4668    3.7081 O   0  0  0  0  0  0  0  0  0  0  0  0
   13.9362   -0.1087    5.7544 N   0  0  0  0  0  0  0  0  0  0  0  0
   13.9011   -1.5240    6.0759 C   0  0  0  0  0  0  0  0  0  0  0  0
   14.1167   -1.5574    7.5783 C   0  0  0  0  0  0  0  0  0  0  0  0
   13.3831   -0.3162    8.0677 C   0  0  0  0  0  0  0  0  0  0  0  0
   13.4739    0.6829    6.8993 C   0  0  2  0  0  0  0  0  0  0  0  0
   12.1080    1.3141    6.6451 C   0  0  0  0  0  0  0  0  0  0  0  0
   17.2558   -4.6804    5.9218 H   0  0  0  0  0  0  0  0  0  0  0  0
   16.6150   -3.4526    4.8197 H   0  0  0  0  0  0  0  0  0  0  0  0
   16.7203   -3.1186    6.5612 H   0  0  0  0  0  0  0  0  0  0  0  0
   19.1122   -3.5984    4.7114 H   0  0  0  0  0  0  0  0  0  0  0  0
   19.2163   -3.2596    6.4358 H   0  0  0  0  0  0  0  0  0  0  0  0
   18.1430   -1.3251    4.2625 H   0  0  0  0  0  0  0  0  0  0  0  0
   19.7640   -0.9344    6.8447 H   0  0  0  0  0  0  0  0  0  0  0  0
   18.9911    0.8312    4.4470 H   0  0  0  0  0  0  0  0  0  0  0  0
   20.4824    0.9651    5.3489 H   0  0  0  0  0  0  0  0  0  0  0  0
   17.7169    1.6390    6.5166 H   0  0  0  0  0  0  0  0  0  0  0  0
   20.5430    1.8420    7.6576 H   0  0  0  0  0  0  0  0  0  0  0  0
   19.1556    0.9579    8.3126 H   0  0  0  0  0  0  0  0  0  0  0  0
   19.1672    2.7151    8.3457 H   0  0  0  0  0  0  0  0  0  0  0  0
   19.9837    3.4607    5.5672 H   0  0  0  0  0  0  0  0  0  0  0  0
   17.4895    4.4374    6.4198 H   0  0  0  0  0  0  0  0  0  0  0  0
   18.5813    2.6401    3.5819 H   0  0  0  0  0  0  0  0  0  0  0  0
   18.1713    5.5267    4.1833 H   0  0  0  0  0  0  0  0  0  0  0  0
   19.2573    6.9846    2.6846 H   0  0  0  0  0  0  0  0  0  0  0  0
   21.6896    6.1274    4.2158 H   0  0  0  0  0  0  0  0  0  0  0  0
   20.8519    6.7405    7.0778 H   0  0  0  0  0  0  0  0  0  0  0  0
   20.0081    8.9890    7.2758 H   0  0  0  0  0  0  0  0  0  0  0  0
   21.6341    8.8372    7.9182 H   0  0  0  0  0  0  0  0  0  0  0  0
   22.5559   10.0398    5.9354 H   0  0  0  0  0  0  0  0  0  0  0  0
   19.6367   10.5206    5.1373 H   0  0  0  0  0  0  0  0  0  0  0  0
   20.7836    9.5619    4.1974 H   0  0  0  0  0  0  0  0  0  0  0  0
   21.0679   11.2719    4.4076 H   0  0  0  0  0  0  0  0  0  0  0  0
   20.3956   11.5866    7.3817 H   0  0  0  0  0  0  0  0  0  0  0  0
   21.8183   12.2382    6.5465 H   0  0  0  0  0  0  0  0  0  0  0  0
   22.0315   11.2401    7.9865 H   0  0  0  0  0  0  0  0  0  0  0  0
   22.5940    8.4842    4.4204 H   0  0  0  0  0  0  0  0  0  0  0  0
   23.7343    7.1913    4.2743 H   0  0  0  0  0  0  0  0  0  0  0  0
   23.9923    8.5359    5.4762 H   0  0  0  0  0  0  0  0  0  0  0  0
   24.8830    4.9806    5.9775 H   0  0  0  0  0  0  0  0  0  0  0  0
   24.9505    4.7313    8.4611 H   0  0  0  0  0  0  0  0  0  0  0  0
   26.4964    5.1305    7.7358 H   0  0  0  0  0  0  0  0  0  0  0  0
   26.1919    7.5470    8.4575 H   0  0  0  0  0  0  0  0  0  0  0  0
   23.8672    6.5517   10.1360 H   0  0  0  0  0  0  0  0  0  0  0  0
   23.7407    7.6624    8.7522 H   0  0  0  0  0  0  0  0  0  0  0  0
   24.6289    8.1516   10.1739 H   0  0  0  0  0  0  0  0  0  0  0  0
   26.2636    5.4075   10.6075 H   0  0  0  0  0  0  0  0  0  0  0  0
   26.7498    7.1011   10.8217 H   0  0  0  0  0  0  0  0  0  0  0  0
   27.6326    6.0709    9.6919 H   0  0  0  0  0  0  0  0  0  0  0  0
   26.0328    7.6415    6.5229 H   0  0  0  0  0  0  0  0  0  0  0  0
   26.9193    8.1179    3.1056 H   0  0  0  0  0  0  0  0  0  0  0  0
   26.0732    9.5884    5.6686 H   0  0  0  0  0  0  0  0  0  0  0  0
   25.2916    9.6368    4.0939 H   0  0  0  0  0  0  0  0  0  0  0  0
   26.9069   10.3183    4.3059 H   0  0  0  0  0  0  0  0  0  0  0  0
   28.9822    8.0625    3.9984 H   0  0  0  0  0  0  0  0  0  0  0  0
   30.0864    7.5139    7.3971 H   0  0  0  0  0  0  0  0  0  0  0  0
   30.7817    9.2769    4.9638 H   0  0  0  0  0  0  0  0  0  0  0  0
   31.8074    8.9937    6.3784 H   0  0  0  0  0  0  0  0  0  0  0  0
   30.2927    9.9079    6.5382 H   0  0  0  0  0  0  0  0  0  0  0  0
   29.8965    6.2501    4.8275 H   0  0  0  0  0  0  0  0  0  0  0  0
   31.5980    4.9152    4.0734 H   0  0  0  0  0  0  0  0  0  0  0  0
   33.5423    4.0345    6.2865 H   0  0  0  0  0  0  0  0  0  0  0  0
   33.9197    5.2078    5.0382 H   0  0  0  0  0  0  0  0  0  0  0  0
   33.2930    2.2458    4.6016 H   0  0  0  0  0  0  0  0  0  0  0  0
   34.4989    4.0410    2.4583 H   0  0  0  0  0  0  0  0  0  0  0  0
   32.7465    3.9326    2.6080 H   0  0  0  0  0  0  0  0  0  0  0  0
   33.6851    2.4785    2.3018 H   0  0  0  0  0  0  0  0  0  0  0  0
   35.9434    3.7686    4.3827 H   0  0  0  0  0  0  0  0  0  0  0  0
   35.6988    2.0396    4.0818 H   0  0  0  0  0  0  0  0  0  0  0  0
   35.4875    2.6952    5.7138 H   0  0  0  0  0  0  0  0  0  0  0  0
   31.1472    3.1617    6.4554 H   0  0  0  0  0  0  0  0  0  0  0  0
   28.5362    1.5465    4.6886 H   0  0  0  0  0  0  0  0  0  0  0  0
   27.9824    2.0821    6.7701 H   0  0  0  0  0  0  0  0  0  0  0  0
   28.2605    2.9525    8.8637 H   0  0  0  0  0  0  0  0  0  0  0  0
   27.8726    0.6064    9.1090 H   0  0  0  0  0  0  0  0  0  0  0  0
   28.0782    1.2776   10.7026 H   0  0  0  0  0  0  0  0  0  0  0  0
   30.1236   -0.3740    9.1364 H   0  0  0  0  0  0  0  0  0  0  0  0
   30.3940    0.7634   11.9701 H   0  0  0  0  0  0  0  0  0  0  0  0
   31.4093    1.1590   10.5679 H   0  0  0  0  0  0  0  0  0  0  0  0
   31.4622   -0.4482   11.2408 H   0  0  0  0  0  0  0  0  0  0  0  0
   28.5440   -1.0386   11.6676 H   0  0  0  0  0  0  0  0  0  0  0  0
   29.6980   -2.0906   10.8311 H   0  0  0  0  0  0  0  0  0  0  0  0
   28.1806   -1.6433   10.0385 H   0  0  0  0  0  0  0  0  0  0  0  0
   31.4212    3.7480    8.5637 H   0  0  0  0  0  0  0  0  0  0  0  0
   32.0261    3.1751   10.1484 H   0  0  0  0  0  0  0  0  0  0  0  0
   31.3339    4.7895    9.9721 H   0  0  0  0  0  0  0  0  0  0  0  0
   30.1326    4.2527   11.8000 H   0  0  0  0  0  0  0  0  0  0  0  0
   30.9125    0.0387    5.9145 H   0  0  0  0  0  0  0  0  0  0  0  0
   28.2053   -0.9505    4.8728 H   0  0  0  0  0  0  0  0  0  0  0  0
   28.6321   -0.7833    6.5860 H   0  0  0  0  0  0  0  0  0  0  0  0
   29.4902   -1.9443    5.5723 H   0  0  0  0  0  0  0  0  0  0  0  0
   29.8768   -0.0993    3.0436 H   0  0  0  0  0  0  0  0  0  0  0  0
   30.9790   -1.2624    3.7937 H   0  0  0  0  0  0  0  0  0  0  0  0
   31.4991    0.4026    3.5728 H   0  0  0  0  0  0  0  0  0  0  0  0
   22.0060    5.9463    1.7279 H   0  0  0  0  0  0  0  0  0  0  0  0
   19.5480    6.6518    0.0396 H   0  0  0  0  0  0  0  0  0  0  0  0
   20.1689    5.0130    0.3166 H   0  0  0  0  0  0  0  0  0  0  0  0
   21.1432    6.1820   -0.5712 H   0  0  0  0  0  0  0  0  0  0  0  0
   20.6820    8.6711    1.2517 H   0  0  0  0  0  0  0  0  0  0  0  0
   22.1740    8.1009    0.4908 H   0  0  0  0  0  0  0  0  0  0  0  0
   22.1288    8.3627    2.2267 H   0  0  0  0  0  0  0  0  0  0  0  0
   16.6360    1.3718    3.5961 H   0  0  0  0  0  0  0  0  0  0  0  0
   14.4672    2.3808    5.2759 H   0  0  0  0  0  0  0  0  0  0  0  0
   13.9177    3.5220    3.2242 H   0  0  0  0  0  0  0  0  0  0  0  0
   12.7181    2.2897    3.5891 H   0  0  0  0  0  0  0  0  0  0  0  0
   14.9102    2.0094    1.4743 H   0  0  0  0  0  0  0  0  0  0  0  0
   13.2122    2.4145    1.1954 H   0  0  0  0  0  0  0  0  0  0  0  0
   13.6293    0.8221    1.8188 H   0  0  0  0  0  0  0  0  0  0  0  0
   14.6533   -2.0976    5.5309 H   0  0  0  0  0  0  0  0  0  0  0  0
   12.9061   -1.8998    5.8123 H   0  0  0  0  0  0  0  0  0  0  0  0
   15.1843   -1.4685    7.8110 H   0  0  0  0  0  0  0  0  0  0  0  0
   13.7423   -2.4763    8.0388 H   0  0  0  0  0  0  0  0  0  0  0  0
   13.8366    0.0882    8.9790 H   0  0  0  0  0  0  0  0  0  0  0  0
   12.3436   -0.5696    8.3073 H   0  0  0  0  0  0  0  0  0  0  0  0
   14.2183    1.4525    7.1269 H   0  0  0  0  0  0  0  0  0  0  0  0
   11.3580    0.5477    6.4146 H   0  0  0  0  0  0  0  0  0  0  0  0
   12.1303    2.0063    5.8013 H   0  0  0  0  0  0  0  0  0  0  0  0
   11.7669    1.8662    7.5268 H   0  0  0  0  0  0  0  0  0  0  0  0
  1  2  1  0  0  0  0
  1 86  1  0  0  0  0
  1 87  1  0  0  0  0
  1 88  1  0  0  0  0
  2  3  1  0  0  0  0
  2 89  1  0  0  0  0
  2 90  1  0  0  0  0
  3  4  2  0  0  0  0
  3 91  1  0  0  0  0
  4  5  1  0  0  0  0
  4 92  1  0  0  0  0
  5  6  1  0  0  0  0
  5 93  1  0  0  0  0
  5 94  1  0  0  0  0
  6  7  1  0  0  0  0
  6  8  1  0  0  0  0
  6 95  1  1  0  0  0
  7 96  1  0  0  0  0
  7 97  1  0  0  0  0
  7 98  1  0  0  0  0
  8  9  1  0  0  0  0
  8 99  1  1  0  0  0
  9100  1  0  0  0  0
 10 72  1  0  0  0  0
 10 11  1  0  0  0  0
 10  8  1  0  0  0  0
 10101  1  6  0  0  0
 11 12  1  0  0  0  0
 11102  1  0  0  0  0
 12 13  2  0  0  0  0
 12 14  1  0  0  0  0
 14 15  1  0  0  0  0
 14 69  1  0  0  0  0
 14103  1  6  0  0  0
 15 16  1  0  0  0  0
 15104  1  0  0  0  0
 16 17  2  0  0  0  0
 18 23  1  0  0  0  0
 18 19  1  0  0  0  0
 18 16  1  0  0  0  0
 18105  1  1  0  0  0
 19 20  1  0  0  0  0
 19106  1  0  0  0  0
 19107  1  0  0  0  0
 20 21  1  0  0  0  0
 20 22  1  0  0  0  0
 20108  1  0  0  0  0
 21109  1  0  0  0  0
 21110  1  0  0  0  0
 21111  1  0  0  0  0
 22112  1  0  0  0  0
 22113  1  0  0  0  0
 22114  1  0  0  0  0
 23 24  1  0  0  0  0
 23 25  1  0  0  0  0
 24115  1  0  0  0  0
 24116  1  0  0  0  0
 24117  1  0  0  0  0
 25 26  2  0  0  0  0
 27 32  1  0  0  0  0
 27 28  1  0  0  0  0
 27 25  1  0  0  0  0
 27118  1  6  0  0  0
 28 29  1  0  0  0  0
 28119  1  0  0  0  0
 28120  1  0  0  0  0
 29 30  1  0  0  0  0
 29 31  1  0  0  0  0
 29121  1  0  0  0  0
 30122  1  0  0  0  0
 30123  1  0  0  0  0
 30124  1  0  0  0  0
 31125  1  0  0  0  0
 31126  1  0  0  0  0
 31127  1  0  0  0  0
 32 33  1  0  0  0  0
 32128  1  0  0  0  0
 33 34  2  0  0  0  0
 33 35  1  0  0  0  0
 35 36  1  0  0  0  0
 35 37  1  0  0  0  0
 35129  1  6  0  0  0
 36130  1  0  0  0  0
 36131  1  0  0  0  0
 36132  1  0  0  0  0
 37 38  1  0  0  0  0
 37133  1  0  0  0  0
 38 39  2  0  0  0  0
 40 42  1  0  0  0  0
 40 41  1  0  0  0  0
 40 38  1  0  0  0  0
 40134  1  1  0  0  0
 41135  1  0  0  0  0
 41136  1  0  0  0  0
 41137  1  0  0  0  0
 42 43  1  0  0  0  0
 42138  1  0  0  0  0
 43 44  2  0  0  0  0
 43 45  1  0  0  0  0
 45 46  1  0  0  0  0
 45 50  1  0  0  0  0
 45139  1  6  0  0  0
 46 47  1  0  0  0  0
 46140  1  0  0  0  0
 46141  1  0  0  0  0
 47 48  1  0  0  0  0
 47 49  1  0  0  0  0
 47142  1  0  0  0  0
 48143  1  0  0  0  0
 48144  1  0  0  0  0
 48145  1  0  0  0  0
 49146  1  0  0  0  0
 49147  1  0  0  0  0
 49148  1  0  0  0  0
 50 51  1  0  0  0  0
 50149  1  0  0  0  0
 51 52  2  0  0  0  0
 53 66  1  0  0  0  0
 53 54  1  0  0  0  0
 53 51  1  0  0  0  0
 53150  1  6  0  0  0
 54 55  1  0  0  0  0
 54151  1  0  0  0  0
 55 56  2  0  0  0  0
 55 57  1  0  0  0  0
 57 58  1  0  0  0  0
 57 62  1  0  0  0  0
 57152  1  6  0  0  0
 58 59  1  0  0  0  0
 58153  1  0  0  0  0
 58154  1  0  0  0  0
 59 60  1  0  0  0  0
 59 61  1  0  0  0  0
 59155  1  0  0  0  0
 60156  1  0  0  0  0
 60157  1  0  0  0  0
 60158  1  0  0  0  0
 61159  1  0  0  0  0
 61160  1  0  0  0  0
 61161  1  0  0  0  0
 62 63  1  0  0  0  0
 62 64  1  0  0  0  0
 63162  1  0  0  0  0
 63163  1  0  0  0  0
 63164  1  0  0  0  0
 64 65  2  0  0  0  0
 64165  1  0  0  0  0
 66 67  1  0  0  0  0
 66 68  1  0  0  0  0
 66166  1  0  0  0  0
 67167  1  0  0  0  0
 67168  1  0  0  0  0
 67169  1  0  0  0  0
 68170  1  0  0  0  0
 68171  1  0  0  0  0
 68172  1  0  0  0  0
 69 70  1  0  0  0  0
 69 71  1  0  0  0  0
 69173  1  0  0  0  0
 70174  1  0  0  0  0
 70175  1  0  0  0  0
 70176  1  0  0  0  0
 71177  1  0  0  0  0
 71178  1  0  0  0  0
 71179  1  0  0  0  0
 72 73  2  0  0  0  0
 72 74  1  0  0  0  0
 74 75  1  0  0  0  0
 74180  1  0  0  0  0
 75 76  1  0  0  0  0
 75 78  1  0  0  0  0
 75181  1  1  0  0  0
 76 77  1  0  0  0  0
 76182  1  0  0  0  0
 76183  1  0  0  0  0
 77184  1  0  0  0  0
 77185  1  0  0  0  0
 77186  1  0  0  0  0
 78 79  2  0  0  0  0
 78 80  1  0  0  0  0
 80 81  1  0  0  0  0
 80 84  1  0  0  0  0
 81 82  1  0  0  0  0
 81187  1  0  0  0  0
 81188  1  0  0  0  0
 82 83  1  0  0  0  0
 82189  1  0  0  0  0
 82190  1  0  0  0  0
 83 84  1  0  0  0  0
 83191  1  0  0  0  0
 83192  1  0  0  0  0
 84 85  1  0  0  0  0
 84193  1  1  0  0  0
 85194  1  0  0  0  0
 85195  1  0  0  0  0
 85196  1  0  0  0  0
M  END
>  <Energy>
216.976

$$$$