117
 OpenBabel03292021593D

193193  0  0  1  0  0  0  0  0999 V2000
   10.2253   -5.5516   -7.4661 C   0  0  0  0  0  0  0  0  0  0  0  0
   11.4878   -5.9248   -8.2235 C   0  0  0  0  0  0  0  0  0  0  0  0
   11.7768   -7.1516   -8.7056 C   0  0  0  0  0  0  0  0  0  0  0  0
   13.1679   -7.7331   -9.0654 C   0  0  0  0  0  0  0  0  0  0  0  0
   14.0013   -7.3324  -10.3419 C   0  0  1  0  0  0  0  0  0  0  0  0
   13.8379   -5.7852  -10.5088 C   0  0  0  0  0  0  0  0  0  0  0  0
   15.6397   -7.7473  -10.3850 C   0  0  1  0  0  0  0  0  0  0  0  0
   16.2431   -6.7734  -11.2404 O   0  0  0  0  0  0  0  0  0  0  0  0
   16.9629   -8.4694   -9.5833 C   0  0  3  0  0  0  0  0  0  0  0  0
   17.1148   -7.5132   -8.1810 N   0  0  0  0  0  0  0  0  0  0  0  0
   16.4381   -6.2569   -7.9703 C   0  0  0  0  0  0  0  0  0  0  0  0
   16.6391   -5.4327   -8.8755 O   0  0  0  0  0  0  0  0  0  0  0  0
   15.6725   -5.7358   -6.5238 C   0  0  2  0  0  0  0  0  0  0  0  0
   15.1100   -4.2299   -6.5745 C   0  0  0  0  0  0  0  0  0  0  0  0
   15.8498   -3.1829   -7.4047 C   0  0  0  0  0  0  0  0  0  0  0  0
   14.9340   -3.6168   -5.1501 C   0  0  0  0  0  0  0  0  0  0  0  0
   14.6646   -6.5561   -5.6781 N   0  0  0  0  0  0  0  0  0  0  0  0
   13.2308   -6.1976   -5.5683 C   0  0  0  0  0  0  0  0  0  0  0  0
   15.0818   -7.1630   -4.4907 C   0  0  0  0  0  0  0  0  0  0  0  0
   14.6293   -6.8813   -3.3764 O   0  0  0  0  0  0  0  0  0  0  0  0
   15.9796   -8.3756   -4.7161 C   0  0  2  0  0  0  0  0  0  0  0  0
   15.0712   -9.6500   -4.5963 C   0  0  0  0  0  0  0  0  0  0  0  0
   13.8557   -9.7234   -5.5672 C   0  0  0  0  0  0  0  0  0  0  0  0
   14.1976  -10.3185   -6.9301 C   0  0  0  0  0  0  0  0  0  0  0  0
   12.6677  -10.4856   -4.9677 C   0  0  0  0  0  0  0  0  0  0  0  0
   17.1292   -8.3809   -3.7891 N   0  0  0  0  0  0  0  0  0  0  0  0
   17.3602   -7.2681   -2.8733 C   0  0  0  0  0  0  0  0  0  0  0  0
   18.1959   -9.2240   -3.9878 C   0  0  0  0  0  0  0  0  0  0  0  0
   18.2957  -10.2654   -3.3300 O   0  0  0  0  0  0  0  0  0  0  0  0
   19.2022   -8.8909   -5.1217 C   0  0  2  0  0  0  0  0  0  0  0  0
   19.1208   -7.4830   -5.7652 C   0  0  0  0  0  0  0  0  0  0  0  0
   20.3213   -6.5352   -5.5637 C   0  0  0  0  0  0  0  0  0  0  0  0
   20.2322   -5.3639   -6.5579 C   0  0  0  0  0  0  0  0  0  0  0  0
   20.3913   -5.9786   -4.1463 C   0  0  0  0  0  0  0  0  0  0  0  0
   19.1788  -10.0082   -6.1069 N   0  0  0  0  0  0  0  0  0  0  0  0
   17.9079  -10.5666   -6.5283 C   0  0  0  0  0  0  0  0  0  0  0  0
   20.1854  -10.0488   -7.0447 C   0  0  0  0  0  0  0  0  0  0  0  0
   20.2521   -9.2213   -7.9547 O   0  0  0  0  0  0  0  0  0  0  0  0
   21.0861  -11.2921   -6.9903 C   0  0  1  0  0  0  0  0  0  0  0  0
   20.3130  -12.5271   -7.4341 C   0  0  0  0  0  0  0  0  0  0  0  0
   22.1925  -10.9382   -7.8900 N   0  0  0  0  0  0  0  0  0  0  0  0
   23.3730  -10.4906   -7.3315 C   0  0  0  0  0  0  0  0  0  0  0  0
   23.7849  -10.9361   -6.2620 O   0  0  0  0  0  0  0  0  0  0  0  0
   24.1670   -9.4248   -8.1461 C   0  0  2  0  0  0  0  0  0  0  0  0
   23.2608   -8.2983   -8.6544 C   0  0  0  0  0  0  0  0  0  0  0  0
   24.9373  -10.0088   -9.2160 N   0  0  0  0  0  0  0  0  0  0  0  0
   25.9168   -9.2838   -9.8914 C   0  0  0  0  0  0  0  0  0  0  0  0
   26.2646   -8.1635   -9.5347 O   0  0  0  0  0  0  0  0  0  0  0  0
   26.6446  -10.0672  -10.9849 C   0  0  1  0  0  0  0  0  0  0  0  0
   26.7166   -9.4548  -12.4123 C   0  0  0  0  0  0  0  0  0  0  0  0
   25.3975   -8.9539  -13.0373 C   0  0  0  0  0  0  0  0  0  0  0  0
   25.3184   -7.4345  -12.9607 C   0  0  0  0  0  0  0  0  0  0  0  0
   25.2509   -9.3662  -14.5135 C   0  0  0  0  0  0  0  0  0  0  0  0
   27.9788  -10.4371  -10.4697 N   0  0  0  0  0  0  0  0  0  0  0  0
   29.0390   -9.4495  -10.5106 C   0  0  0  0  0  0  0  0  0  0  0  0
   28.1729  -11.7169   -9.9592 C   0  0  0  0  0  0  0  0  0  0  0  0
   27.2370  -12.4303   -9.5799 O   0  0  0  0  0  0  0  0  0  0  0  0
   29.5322  -12.3547  -10.3161 C   0  0  1  0  0  0  0  0  0  0  0  0
   30.1413  -13.2483   -9.2160 C   0  0  0  0  0  0  0  0  0  0  0  0
   31.5457  -13.7274   -9.6162 C   0  0  0  0  0  0  0  0  0  0  0  0
   30.2319  -12.5243   -7.8713 C   0  0  0  0  0  0  0  0  0  0  0  0
   29.0716  -13.1708  -11.4490 N   0  0  0  0  0  0  0  0  0  0  0  0
   28.8395  -12.5919  -12.6917 C   0  0  0  0  0  0  0  0  0  0  0  0
   29.3515  -11.5298  -13.0256 O   0  0  0  0  0  0  0  0  0  0  0  0
   28.1052  -13.5379  -13.6689 C   0  0  1  0  0  0  0  0  0  0  0  0
   28.7607  -13.6190  -15.1076 C   0  0  0  0  0  0  0  0  0  0  0  0
   28.5010  -12.6199  -16.2471 C   0  0  0  0  0  0  0  0  0  0  0  0
   29.0781  -11.2254  -16.0022 C   0  0  0  0  0  0  0  0  0  0  0  0
   29.1716  -13.1574  -17.5357 C   0  0  0  0  0  0  0  0  0  0  0  0
   26.7564  -14.2720  -13.3444 N   0  0  0  0  0  0  0  0  0  0  0  0
   26.9954  -15.7384  -13.3392 C   0  0  0  0  0  0  0  0  0  0  0  0
   25.3460  -13.9376  -13.2736 C   0  0  0  0  0  0  0  0  0  0  0  0
   24.5438  -14.8407  -13.5800 O   0  0  0  0  0  0  0  0  0  0  0  0
   24.6324  -12.5642  -12.6416 C   0  0  0  0  0  0  0  0  0  0  0  0
   22.9949  -12.2305  -12.6065 N   0  0  0  0  0  0  0  0  0  0  0  0
   22.2808  -12.6813  -13.7864 C   0  0  0  0  0  0  0  0  0  0  0  0
   22.3677  -11.2183  -11.7207 C   0  0  0  0  0  0  0  0  0  0  0  0
   23.1671  -10.5363  -11.0590 O   0  0  0  0  0  0  0  0  0  0  0  0
   20.5811  -11.0706  -11.2379 C   0  0  2  0  0  0  0  0  0  0  0  0
   20.0881  -12.5579  -11.1419 C   0  0  0  0  0  0  0  0  0  0  0  0
   21.1205  -13.5572  -10.5863 C   0  0  0  0  0  0  0  0  0  0  0  0
   19.2254  -10.1435  -10.4979 N   0  0  0  0  0  0  0  0  0  0  0  0
   18.4536   -8.9021  -10.6426 C   0  0  0  0  0  0  0  0  0  0  0  0
   18.8619   -8.0798  -11.4705 O   0  0  0  0  0  0  0  0  0  0  0  0
   10.4923   -5.2962   -6.4521 H   0  0  0  0  0  0  0  0  0  0  0  0
    9.5040   -6.3711   -7.4221 H   0  0  0  0  0  0  0  0  0  0  0  0
    9.7358   -4.6748   -7.8985 H   0  0  0  0  0  0  0  0  0  0  0  0
   12.2390   -5.1389   -8.2118 H   0  0  0  0  0  0  0  0  0  0  0  0
   10.9860   -7.8995   -8.6093 H   0  0  0  0  0  0  0  0  0  0  0  0
   13.0165   -8.8116   -9.1288 H   0  0  0  0  0  0  0  0  0  0  0  0
   13.7856   -7.5747   -8.1747 H   0  0  0  0  0  0  0  0  0  0  0  0
   13.5300   -7.7952  -11.2161 H   0  0  0  0  0  0  0  0  0  0  0  0
   14.1663   -5.2555   -9.6012 H   0  0  0  0  0  0  0  0  0  0  0  0
   12.7937   -5.5069  -10.6836 H   0  0  0  0  0  0  0  0  0  0  0  0
   14.4018   -5.3779  -11.3474 H   0  0  0  0  0  0  0  0  0  0  0  0
   15.4822   -7.2949   -9.4355 H   0  0  0  0  0  0  0  0  0  0  0  0
   16.5505   -6.0511  -10.6469 H   0  0  0  0  0  0  0  0  0  0  0  0
   16.6463   -9.4371   -9.1806 H   0  0  0  0  0  0  0  0  0  0  0  0
   18.0648   -7.1914   -8.3484 H   0  0  0  0  0  0  0  0  0  0  0  0
   16.5487   -5.6646   -5.8672 H   0  0  0  0  0  0  0  0  0  0  0  0
   14.1204   -4.2740   -7.0451 H   0  0  0  0  0  0  0  0  0  0  0  0
   16.9022   -3.1206   -7.1265 H   0  0  0  0  0  0  0  0  0  0  0  0
   15.3945   -2.1944   -7.2428 H   0  0  0  0  0  0  0  0  0  0  0  0
   15.7480   -3.3665   -8.4741 H   0  0  0  0  0  0  0  0  0  0  0  0
   15.1308   -4.3275   -4.3437 H   0  0  0  0  0  0  0  0  0  0  0  0
   13.9074   -3.2485   -5.0164 H   0  0  0  0  0  0  0  0  0  0  0  0
   15.5901   -2.7566   -4.9779 H   0  0  0  0  0  0  0  0  0  0  0  0
   12.9963   -5.1414   -5.6575 H   0  0  0  0  0  0  0  0  0  0  0  0
   12.7861   -6.5116   -4.6165 H   0  0  0  0  0  0  0  0  0  0  0  0
   12.6974   -6.7731   -6.3105 H   0  0  0  0  0  0  0  0  0  0  0  0
   16.3684   -8.3102   -5.7239 H   0  0  0  0  0  0  0  0  0  0  0  0
   15.6782  -10.5488   -4.7327 H   0  0  0  0  0  0  0  0  0  0  0  0
   14.7002   -9.6984   -3.5639 H   0  0  0  0  0  0  0  0  0  0  0  0
   13.4707   -8.7267   -5.7528 H   0  0  0  0  0  0  0  0  0  0  0  0
   14.5631  -11.3450   -6.8442 H   0  0  0  0  0  0  0  0  0  0  0  0
   14.9566   -9.7210   -7.4416 H   0  0  0  0  0  0  0  0  0  0  0  0
   13.3110  -10.3457   -7.5715 H   0  0  0  0  0  0  0  0  0  0  0  0
   12.8964  -11.5470   -4.8467 H   0  0  0  0  0  0  0  0  0  0  0  0
   11.7922  -10.3972   -5.6212 H   0  0  0  0  0  0  0  0  0  0  0  0
   12.3892  -10.0684   -3.9903 H   0  0  0  0  0  0  0  0  0  0  0  0
   16.6046   -7.2596   -2.0918 H   0  0  0  0  0  0  0  0  0  0  0  0
   17.3402   -6.3260   -3.4286 H   0  0  0  0  0  0  0  0  0  0  0  0
   18.3404   -7.3619   -2.3991 H   0  0  0  0  0  0  0  0  0  0  0  0
   20.1911   -8.9600   -4.6493 H   0  0  0  0  0  0  0  0  0  0  0  0
   19.0552   -7.6186   -6.8367 H   0  0  0  0  0  0  0  0  0  0  0  0
   18.2194   -6.9459   -5.4793 H   0  0  0  0  0  0  0  0  0  0  0  0
   21.2458   -7.0837   -5.7760 H   0  0  0  0  0  0  0  0  0  0  0  0
   19.3061   -4.7927   -6.4234 H   0  0  0  0  0  0  0  0  0  0  0  0
   20.2563   -5.7228   -7.5931 H   0  0  0  0  0  0  0  0  0  0  0  0
   21.0738   -4.6749   -6.4286 H   0  0  0  0  0  0  0  0  0  0  0  0
   19.5097   -5.3708   -3.9156 H   0  0  0  0  0  0  0  0  0  0  0  0
   21.2724   -5.3367   -4.0283 H   0  0  0  0  0  0  0  0  0  0  0  0
   20.4666   -6.7799   -3.4086 H   0  0  0  0  0  0  0  0  0  0  0  0
   17.1977   -9.7738   -6.7270 H   0  0  0  0  0  0  0  0  0  0  0  0
   17.5376  -11.2457   -5.7564 H   0  0  0  0  0  0  0  0  0  0  0  0
   18.0000  -11.1238   -7.4629 H   0  0  0  0  0  0  0  0  0  0  0  0
   21.4487  -11.4220   -5.9696 H   0  0  0  0  0  0  0  0  0  0  0  0
   20.9735  -13.3643   -7.6639 H   0  0  0  0  0  0  0  0  0  0  0  0
   19.6258  -12.8533   -6.6440 H   0  0  0  0  0  0  0  0  0  0  0  0
   19.6960  -12.3249   -8.3129 H   0  0  0  0  0  0  0  0  0  0  0  0
   21.9027  -10.3828   -8.6829 H   0  0  0  0  0  0  0  0  0  0  0  0
   24.8775   -8.9775   -7.4342 H   0  0  0  0  0  0  0  0  0  0  0  0
   22.6304   -8.6221   -9.4903 H   0  0  0  0  0  0  0  0  0  0  0  0
   23.8501   -7.4548   -9.0226 H   0  0  0  0  0  0  0  0  0  0  0  0
   22.6043   -7.9298   -7.8608 H   0  0  0  0  0  0  0  0  0  0  0  0
   24.4554  -10.7281   -9.7719 H   0  0  0  0  0  0  0  0  0  0  0  0
   26.0893  -10.9944  -11.1091 H   0  0  0  0  0  0  0  0  0  0  0  0
   27.1279  -10.2400  -13.0633 H   0  0  0  0  0  0  0  0  0  0  0  0
   27.4531   -8.6465  -12.4329 H   0  0  0  0  0  0  0  0  0  0  0  0
   24.5445   -9.3599  -12.4959 H   0  0  0  0  0  0  0  0  0  0  0  0
   26.1090   -6.9705  -13.5637 H   0  0  0  0  0  0  0  0  0  0  0  0
   25.4311   -7.0825  -11.9273 H   0  0  0  0  0  0  0  0  0  0  0  0
   24.3565   -7.0738  -13.3328 H   0  0  0  0  0  0  0  0  0  0  0  0
   26.1786   -9.2087  -15.0722 H   0  0  0  0  0  0  0  0  0  0  0  0
   24.4532   -8.7986  -15.0047 H   0  0  0  0  0  0  0  0  0  0  0  0
   24.9809  -10.4182  -14.6227 H   0  0  0  0  0  0  0  0  0  0  0  0
   28.6385   -8.4485  -10.3211 H   0  0  0  0  0  0  0  0  0  0  0  0
   29.5110   -9.4603  -11.4960 H   0  0  0  0  0  0  0  0  0  0  0  0
   29.7905   -9.6657   -9.7485 H   0  0  0  0  0  0  0  0  0  0  0  0
   30.2664  -11.6275  -10.6758 H   0  0  0  0  0  0  0  0  0  0  0  0
   29.5145  -14.1389   -9.0750 H   0  0  0  0  0  0  0  0  0  0  0  0
   32.2323  -12.8829   -9.7505 H   0  0  0  0  0  0  0  0  0  0  0  0
   31.5251  -14.2981  -10.5497 H   0  0  0  0  0  0  0  0  0  0  0  0
   31.9712  -14.3772   -8.8419 H   0  0  0  0  0  0  0  0  0  0  0  0
   30.8271  -11.6091   -7.9490 H   0  0  0  0  0  0  0  0  0  0  0  0
   30.7002  -13.1681   -7.1173 H   0  0  0  0  0  0  0  0  0  0  0  0
   29.2384  -12.2588   -7.4972 H   0  0  0  0  0  0  0  0  0  0  0  0
   28.4245  -13.9101  -11.1929 H   0  0  0  0  0  0  0  0  0  0  0  0
   28.7462  -14.3809  -13.3346 H   0  0  0  0  0  0  0  0  0  0  0  0
   28.5735  -14.6259  -15.5027 H   0  0  0  0  0  0  0  0  0  0  0  0
   29.8571  -13.5936  -14.9501 H   0  0  0  0  0  0  0  0  0  0  0  0
   27.4237  -12.5488  -16.4204 H   0  0  0  0  0  0  0  0  0  0  0  0
   30.1569  -11.2653  -15.8026 H   0  0  0  0  0  0  0  0  0  0  0  0
   28.5838  -10.7262  -15.1689 H   0  0  0  0  0  0  0  0  0  0  0  0
   28.9405  -10.5909  -16.8860 H   0  0  0  0  0  0  0  0  0  0  0  0
   30.2665  -13.1689  -17.4450 H   0  0  0  0  0  0  0  0  0  0  0  0
   28.9233  -12.5303  -18.3993 H   0  0  0  0  0  0  0  0  0  0  0  0
   28.8507  -14.1790  -17.7639 H   0  0  0  0  0  0  0  0  0  0  0  0
   27.7517  -15.9704  -12.5754 H   0  0  0  0  0  0  0  0  0  0  0  0
   27.3863  -16.0565  -14.3120 H   0  0  0  0  0  0  0  0  0  0  0  0
   26.1215  -16.3425  -13.0959 H   0  0  0  0  0  0  0  0  0  0  0  0
   25.1061  -11.7275  -13.1374 H   0  0  0  0  0  0  0  0  0  0  0  0
   24.9077  -12.5765  -11.5848 H   0  0  0  0  0  0  0  0  0  0  0  0
   22.8562  -13.4116  -14.3452 H   0  0  0  0  0  0  0  0  0  0  0  0
   21.3322  -13.1390  -13.5054 H   0  0  0  0  0  0  0  0  0  0  0  0
   22.0853  -11.8200  -14.4348 H   0  0  0  0  0  0  0  0  0  0  0  0
   21.0082  -10.9543  -10.2330 H   0  0  0  0  0  0  0  0  0  0  0  0
   19.7219  -12.8954  -12.1137 H   0  0  0  0  0  0  0  0  0  0  0  0
   19.2223  -12.5987  -10.4731 H   0  0  0  0  0  0  0  0  0  0  0  0
   21.8501  -13.0867   -9.9175 H   0  0  0  0  0  0  0  0  0  0  0  0
   21.6757  -14.0585  -11.3838 H   0  0  0  0  0  0  0  0  0  0  0  0
   20.6234  -14.3496  -10.0196 H   0  0  0  0  0  0  0  0  0  0  0  0
   19.0590  -10.5261   -9.5824 H   0  0  0  0  0  0  0  0  0  0  0  0
  1  2  1  0  0  0  0
  1 85  1  0  0  0  0
  1 86  1  0  0  0  0
  1 87  1  0  0  0  0
  2  3  2  0  0  0  0
  2 88  1  0  0  0  0
  3  4  1  0  0  0  0
  3 89  1  0  0  0  0
  4  5  1  0  0  0  0
  4 90  1  0  0  0  0
  4 91  1  0  0  0  0
  5  6  1  0  0  0  0
  5  7  1  0  0  0  0
  5 92  1  6  0  0  0
  6 93  1  0  0  0  0
  6 94  1  0  0  0  0
  6 95  1  0  0  0  0
  7  8  1  0  0  0  0
  7  9  1  0  0  0  0
  7 96  1  6  0  0  0
  8 97  1  0  0  0  0
  9 10  1  0  0  0  0
  9 83  1  0  0  0  0
  9 98  1  0  0  0  0
 10 11  1  0  0  0  0
 10 99  1  0  0  0  0
 11 12  2  0  0  0  0
 11 13  1  0  0  0  0
 13 17  1  0  0  0  0
 13 14  1  0  0  0  0
 13100  1  6  0  0  0
 14 15  1  0  0  0  0
 14 16  1  0  0  0  0
 14101  1  0  0  0  0
 15102  1  0  0  0  0
 15103  1  0  0  0  0
 15104  1  0  0  0  0
 16105  1  0  0  0  0
 16106  1  0  0  0  0
 16107  1  0  0  0  0
 17 18  1  0  0  0  0
 17 19  1  0  0  0  0
 18108  1  0  0  0  0
 18109  1  0  0  0  0
 18110  1  0  0  0  0
 19 20  2  0  0  0  0
 19 21  1  0  0  0  0
 21 26  1  0  0  0  0
 21 22  1  0  0  0  0
 21111  1  6  0  0  0
 22 23  1  0  0  0  0
 22112  1  0  0  0  0
 22113  1  0  0  0  0
 23 24  1  0  0  0  0
 23 25  1  0  0  0  0
 23114  1  0  0  0  0
 24115  1  0  0  0  0
 24116  1  0  0  0  0
 24117  1  0  0  0  0
 25118  1  0  0  0  0
 25119  1  0  0  0  0
 25120  1  0  0  0  0
 26 27  1  0  0  0  0
 26 28  1  0  0  0  0
 27121  1  0  0  0  0
 27122  1  0  0  0  0
 27123  1  0  0  0  0
 28 29  2  0  0  0  0
 28 30  1  0  0  0  0
 30 35  1  0  0  0  0
 30 31  1  0  0  0  0
 30124  1  1  0  0  0
 31 32  1  0  0  0  0
 31125  1  0  0  0  0
 31126  1  0  0  0  0
 32 33  1  0  0  0  0
 32 34  1  0  0  0  0
 32127  1  0  0  0  0
 33128  1  0  0  0  0
 33129  1  0  0  0  0
 33130  1  0  0  0  0
 34131  1  0  0  0  0
 34132  1  0  0  0  0
 34133  1  0  0  0  0
 35 36  1  0  0  0  0
 35 37  1  0  0  0  0
 36134  1  0  0  0  0
 36135  1  0  0  0  0
 36136  1  0  0  0  0
 37 38  2  0  0  0  0
 37 39  1  0  0  0  0
 39 40  1  0  0  0  0
 39 41  1  0  0  0  0
 39137  1  1  0  0  0
 40138  1  0  0  0  0
 40139  1  0  0  0  0
 40140  1  0  0  0  0
 41 42  1  0  0  0  0
 41141  1  0  0  0  0
 42 43  2  0  0  0  0
 42 44  1  0  0  0  0
 44 46  1  0  0  0  0
 44 45  1  0  0  0  0
 44142  1  1  0  0  0
 45143  1  0  0  0  0
 45144  1  0  0  0  0
 45145  1  0  0  0  0
 46 47  1  0  0  0  0
 46146  1  0  0  0  0
 47 48  2  0  0  0  0
 47 49  1  0  0  0  0
 49 50  1  0  0  0  0
 49 54  1  0  0  0  0
 49147  1  6  0  0  0
 50 51  1  0  0  0  0
 50148  1  0  0  0  0
 50149  1  0  0  0  0
 51 52  1  0  0  0  0
 51 53  1  0  0  0  0
 51150  1  0  0  0  0
 52151  1  0  0  0  0
 52152  1  0  0  0  0
 52153  1  0  0  0  0
 53154  1  0  0  0  0
 53155  1  0  0  0  0
 53156  1  0  0  0  0
 54 55  1  0  0  0  0
 54 56  1  0  0  0  0
 55157  1  0  0  0  0
 55158  1  0  0  0  0
 55159  1  0  0  0  0
 56 57  2  0  0  0  0
 56 58  1  0  0  0  0
 58 59  1  0  0  0  0
 58 62  1  0  0  0  0
 58160  1  6  0  0  0
 59 60  1  0  0  0  0
 59 61  1  0  0  0  0
 59161  1  0  0  0  0
 60162  1  0  0  0  0
 60163  1  0  0  0  0
 60164  1  0  0  0  0
 61165  1  0  0  0  0
 61166  1  0  0  0  0
 61167  1  0  0  0  0
 62 63  1  0  0  0  0
 62168  1  0  0  0  0
 63 64  2  0  0  0  0
 63 65  1  0  0  0  0
 65 66  1  0  0  0  0
 65 70  1  0  0  0  0
 65169  1  6  0  0  0
 66 67  1  0  0  0  0
 66170  1  0  0  0  0
 66171  1  0  0  0  0
 67 68  1  0  0  0  0
 67 69  1  0  0  0  0
 67172  1  0  0  0  0
 68173  1  0  0  0  0
 68174  1  0  0  0  0
 68175  1  0  0  0  0
 69176  1  0  0  0  0
 69177  1  0  0  0  0
 69178  1  0  0  0  0
 70 71  1  0  0  0  0
 70 72  1  0  0  0  0
 71179  1  0  0  0  0
 71180  1  0  0  0  0
 71181  1  0  0  0  0
 72 73  2  0  0  0  0
 72 74  1  0  0  0  0
 74 75  1  0  0  0  0
 74182  1  0  0  0  0
 74183  1  0  0  0  0
 75 76  1  0  0  0  0
 75 77  1  0  0  0  0
 76184  1  0  0  0  0
 76185  1  0  0  0  0
 76186  1  0  0  0  0
 77 78  2  0  0  0  0
 77 79  1  0  0  0  0
 79 82  1  0  0  0  0
 79 80  1  0  0  0  0
 79187  1  1  0  0  0
 80 81  1  0  0  0  0
 80188  1  0  0  0  0
 80189  1  0  0  0  0
 81190  1  0  0  0  0
 81191  1  0  0  0  0
 81192  1  0  0  0  0
 82 83  1  0  0  0  0
 82193  1  0  0  0  0
 83 84  2  0  0  0  0
M  END
>  <Energy>
769.925

$$$$