118
 OpenBabel03292021593D

190190  0  0  1  0  0  0  0  0999 V2000
    5.0503    1.6804    0.8321 C   0  0  0  0  0  0  0  0  0  0  0  0
    6.1811    1.8953    1.9185 C   0  0  0  0  0  0  0  0  0  0  0  0
    6.8070    1.1462    3.2723 C   0  0  0  0  0  0  0  0  0  0  0  0
    6.6993   -0.0475    4.0093 C   0  0  0  0  0  0  0  0  0  0  0  0
    7.2079   -0.7369    5.5822 C   0  0  0  0  0  0  0  0  0  0  0  0
    8.6132   -1.5572    6.4933 C   0  0  1  0  0  0  0  0  0  0  0  0
    9.6294   -1.4546    5.2746 C   0  0  0  0  0  0  0  0  0  0  0  0
    9.0352   -1.6604    8.4139 C   0  0  1  0  0  0  0  0  0  0  0  0
    9.0740   -0.2723    8.7795 O   0  0  0  0  0  0  0  0  0  0  0  0
   10.2739   -2.6765    9.6047 C   0  0  1  0  0  0  0  0  0  0  0  0
   10.5183   -3.8129   11.2472 C   0  0  0  0  0  0  0  0  0  0  0  0
    9.6871   -4.7515   11.3461 O   0  0  0  0  0  0  0  0  0  0  0  0
   11.8804   -4.2580   12.2815 N   0  0  0  0  0  0  0  0  0  0  0  0
   12.3813   -5.2158   13.7943 C   0  0  1  0  0  0  0  0  0  0  0  0
   12.6396   -4.7305   15.5522 C   0  0  0  0  0  0  0  0  0  0  0  0
   13.2049   -5.7487   16.7689 C   0  0  0  0  0  0  0  0  0  0  0  0
   13.3510   -6.6973   13.9426 C   0  0  0  0  0  0  0  0  0  0  0  0
   12.6837   -7.7459   13.7320 O   0  0  0  0  0  0  0  0  0  0  0  0
   14.6875   -6.9406   14.4037 N   0  0  0  0  0  0  0  0  0  0  0  0
   15.6729   -6.0501   15.0587 C   0  0  0  0  0  0  0  0  0  0  0  0
   15.3228   -8.2361   13.9876 C   0  0  0  0  0  0  0  0  0  0  0  0
   14.9356   -9.7518   14.1388 C   0  0  0  0  0  0  0  0  0  0  0  0
   15.0945  -10.4303   13.1112 O   0  0  0  0  0  0  0  0  0  0  0  0
   14.6476  -10.3640   15.3624 N   0  0  0  0  0  0  0  0  0  0  0  0
   14.6656   -9.6273   16.5984 C   0  0  0  0  0  0  0  0  0  0  0  0
   14.3972  -11.8618   15.4417 C   0  0  2  0  0  0  0  0  0  0  0  0
   12.9764  -12.1659   16.0450 C   0  0  0  0  0  0  0  0  0  0  0  0
   12.5554  -13.5911   16.4919 C   0  0  0  0  0  0  0  0  0  0  0  0
   13.2974  -14.1801   17.6888 C   0  0  0  0  0  0  0  0  0  0  0  0
   11.0468  -13.6249   16.7965 C   0  0  0  0  0  0  0  0  0  0  0  0
   15.5334  -12.6654   16.1507 C   0  0  0  0  0  0  0  0  0  0  0  0
   15.9193  -12.3385   17.2786 O   0  0  0  0  0  0  0  0  0  0  0  0
   16.1177  -13.8232   15.6449 N   0  0  0  0  0  0  0  0  0  0  0  0
   16.3021  -14.2952   14.2345 C   0  0  2  0  0  0  0  0  0  0  0  0
   16.8483  -13.1439   13.3650 C   0  0  0  0  0  0  0  0  0  0  0  0
   16.9897  -13.4774   11.8819 C   0  0  0  0  0  0  0  0  0  0  0  0
   18.1254  -12.5098   13.9220 C   0  0  0  0  0  0  0  0  0  0  0  0
   14.9443  -14.7822   13.6965 C   0  0  0  0  0  0  0  0  0  0  0  0
   14.0183  -13.9597   13.7602 O   0  0  0  0  0  0  0  0  0  0  0  0
   14.6648  -16.0162   13.1640 N   0  0  0  0  0  0  0  0  0  0  0  0
   15.6639  -17.0487   12.9149 C   0  0  0  0  0  0  0  0  0  0  0  0
   13.2493  -16.3327   12.7202 C   0  0  1  0  0  0  0  0  0  0  0  0
   12.1318  -15.5382   13.4114 C   0  0  0  0  0  0  0  0  0  0  0  0
   13.1141  -16.5859   11.1921 C   0  0  0  0  0  0  0  0  0  0  0  0
   13.7826  -17.5065   10.6637 O   0  0  0  0  0  0  0  0  0  0  0  0
   12.3605  -15.8683   10.3275 N   0  0  0  0  0  0  0  0  0  0  0  0
   11.3785  -14.8160   10.5701 C   0  0  1  0  0  0  0  0  0  0  0  0
   11.3344  -13.9200    9.3545 C   0  0  0  0  0  0  0  0  0  0  0  0
   10.0406  -15.4709   11.0435 C   0  0  0  0  0  0  0  0  0  0  0  0
    9.9747  -16.6465   11.4250 O   0  0  0  0  0  0  0  0  0  0  0  0
    8.9063  -14.7215   11.2271 N   0  0  0  0  0  0  0  0  0  0  0  0
    8.0846  -14.3171   10.0713 C   0  0  2  0  0  0  0  0  0  0  0  0
    8.2338  -15.2725    8.8792 C   0  0  0  0  0  0  0  0  0  0  0  0
    8.2550  -12.8142    9.7213 C   0  0  0  0  0  0  0  0  0  0  0  0
    8.8049  -12.4699    8.6772 O   0  0  0  0  0  0  0  0  0  0  0  0
    7.7782  -11.9056   10.6860 N   0  0  0  0  0  0  0  0  0  0  0  0
    6.3307  -11.8899   10.8485 C   0  0  0  0  0  0  0  0  0  0  0  0
    8.3970  -10.5553   10.7970 C   0  0  1  0  0  0  0  0  0  0  0  0
    9.8995  -10.5575   11.0631 C   0  0  0  0  0  0  0  0  0  0  0  0
   10.4334  -11.1103   12.3764 C   0  0  0  0  0  0  0  0  0  0  0  0
   11.9596  -10.9488   12.3369 C   0  0  0  0  0  0  0  0  0  0  0  0
    9.8238  -10.3977   13.5713 C   0  0  0  0  0  0  0  0  0  0  0  0
    7.9501   -9.5995    9.6534 C   0  0  0  0  0  0  0  0  0  0  0  0
    6.9583   -8.8780    9.8285 O   0  0  0  0  0  0  0  0  0  0  0  0
    8.5572   -9.7343    8.4092 N   0  0  0  0  0  0  0  0  0  0  0  0
   10.0150   -9.5978    8.3175 C   0  0  0  0  0  0  0  0  0  0  0  0
    7.8655   -9.2209    7.2151 C   0  0  1  0  0  0  0  0  0  0  0  0
    6.3937   -9.3405    6.9917 C   0  0  0  0  0  0  0  0  0  0  0  0
    5.9839   -8.6400    5.6616 C   0  0  0  0  0  0  0  0  0  0  0  0
    6.6004   -9.2856    4.4209 C   0  0  0  0  0  0  0  0  0  0  0  0
    4.4689   -8.5378    5.5843 C   0  0  0  0  0  0  0  0  0  0  0  0
    8.4627   -7.9284    6.8089 C   0  0  0  0  0  0  0  0  0  0  0  0
    9.3775   -8.0425    6.0073 O   0  0  0  0  0  0  0  0  0  0  0  0
    8.2741   -6.7738    7.6121 N   0  0  0  0  0  0  0  0  0  0  0  0
    6.8930   -6.2057    7.7442 C   0  0  0  0  0  0  0  0  0  0  0  0
    9.4343   -5.9709    8.0387 C   0  0  1  0  0  0  0  0  0  0  0  0
   10.7259   -6.0718    7.1643 C   0  0  0  0  0  0  0  0  0  0  0  0
   11.7910   -7.0677    7.5882 C   0  0  0  0  0  0  0  0  0  0  0  0
   10.4989   -5.6760    5.6845 C   0  0  0  0  0  0  0  0  0  0  0  0
    9.1750   -4.5013    8.2727 C   0  0  0  0  0  0  0  0  0  0  0  0
    8.1407   -3.9777    8.4453 O   0  0  0  0  0  0  0  0  0  0  0  0
   10.4902   -3.7196    8.5806 N   0  0  0  0  0  0  0  0  0  0  0  0
   11.2377   -3.1281    7.4366 C   0  0  0  0  0  0  0  0  0  0  0  0
    4.9494    2.6194    0.2370 H   0  0  0  0  0  0  0  0  0  0  0  0
    4.0409    1.5177    1.2232 H   0  0  0  0  0  0  0  0  0  0  0  0
    5.2805    0.9322    0.0634 H   0  0  0  0  0  0  0  0  0  0  0  0
    5.8802    2.8829    2.3119 H   0  0  0  0  0  0  0  0  0  0  0  0
    7.0570    2.1236    1.2879 H   0  0  0  0  0  0  0  0  0  0  0  0
    7.4985    1.8783    3.6847 H   0  0  0  0  0  0  0  0  0  0  0  0
    5.9655   -0.7183    3.5363 H   0  0  0  0  0  0  0  0  0  0  0  0
    6.8426   -1.7206    5.2145 H   0  0  0  0  0  0  0  0  0  0  0  0
    6.4347   -0.4742    6.3092 H   0  0  0  0  0  0  0  0  0  0  0  0
    8.2811   -2.6251    6.3908 H   0  0  0  0  0  0  0  0  0  0  0  0
    9.9546   -0.4314    5.0738 H   0  0  0  0  0  0  0  0  0  0  0  0
    9.0705   -1.7417    4.3623 H   0  0  0  0  0  0  0  0  0  0  0  0
   10.4814   -2.1255    5.1992 H   0  0  0  0  0  0  0  0  0  0  0  0
    8.0628   -1.9689    8.8175 H   0  0  0  0  0  0  0  0  0  0  0  0
    8.2001    0.0594    8.4934 H   0  0  0  0  0  0  0  0  0  0  0  0
   11.1589   -2.0417    9.6720 H   0  0  0  0  0  0  0  0  0  0  0  0
   12.1291   -5.0399   11.6785 H   0  0  0  0  0  0  0  0  0  0  0  0
   11.4144   -5.6495   13.9705 H   0  0  0  0  0  0  0  0  0  0  0  0
   11.6488   -4.4915   15.9478 H   0  0  0  0  0  0  0  0  0  0  0  0
   13.2936   -3.8572   15.6347 H   0  0  0  0  0  0  0  0  0  0  0  0
   13.1097   -6.8294   16.6037 H   0  0  0  0  0  0  0  0  0  0  0  0
   12.7018   -5.5740   17.7392 H   0  0  0  0  0  0  0  0  0  0  0  0
   14.2500   -5.5470   17.0638 H   0  0  0  0  0  0  0  0  0  0  0  0
   15.7952   -6.3600   16.1105 H   0  0  0  0  0  0  0  0  0  0  0  0
   15.4155   -4.9993   14.9872 H   0  0  0  0  0  0  0  0  0  0  0  0
   16.6809   -6.2019   14.6404 H   0  0  0  0  0  0  0  0  0  0  0  0
   16.3668   -8.2389   14.3547 H   0  0  0  0  0  0  0  0  0  0  0  0
   15.4207   -8.0933   12.9038 H   0  0  0  0  0  0  0  0  0  0  0  0
   14.1369   -8.6929   16.4411 H   0  0  0  0  0  0  0  0  0  0  0  0
   15.6998   -9.4364   16.8892 H   0  0  0  0  0  0  0  0  0  0  0  0
   14.1672  -10.1744   17.3993 H   0  0  0  0  0  0  0  0  0  0  0  0
   14.3642  -12.1345   14.4045 H   0  0  0  0  0  0  0  0  0  0  0  0
   12.7667  -11.5043   16.8849 H   0  0  0  0  0  0  0  0  0  0  0  0
   12.2607  -11.8559   15.2712 H   0  0  0  0  0  0  0  0  0  0  0  0
   12.7194  -14.2697   15.6699 H   0  0  0  0  0  0  0  0  0  0  0  0
   13.3452  -13.4764   18.5224 H   0  0  0  0  0  0  0  0  0  0  0  0
   14.3080  -14.4917   17.4242 H   0  0  0  0  0  0  0  0  0  0  0  0
   12.8008  -15.0937   18.0396 H   0  0  0  0  0  0  0  0  0  0  0  0
   10.7993  -12.9841   17.6495 H   0  0  0  0  0  0  0  0  0  0  0  0
   10.7202  -14.6439   17.0393 H   0  0  0  0  0  0  0  0  0  0  0  0
   10.4577  -13.2954   15.9343 H   0  0  0  0  0  0  0  0  0  0  0  0
   16.7917  -14.1857   16.3043 H   0  0  0  0  0  0  0  0  0  0  0  0
   17.0340  -15.1066   14.2893 H   0  0  0  0  0  0  0  0  0  0  0  0
   16.1053  -12.3584   13.3865 H   0  0  0  0  0  0  0  0  0  0  0  0
   17.7268  -14.2629   11.7054 H   0  0  0  0  0  0  0  0  0  0  0  0
   17.2936  -12.5811   11.3281 H   0  0  0  0  0  0  0  0  0  0  0  0
   16.0297  -13.7921   11.4586 H   0  0  0  0  0  0  0  0  0  0  0  0
   18.9641  -13.2100   13.9115 H   0  0  0  0  0  0  0  0  0  0  0  0
   17.9859  -12.1619   14.9515 H   0  0  0  0  0  0  0  0  0  0  0  0
   18.3974  -11.6254   13.3361 H   0  0  0  0  0  0  0  0  0  0  0  0
   16.6277  -16.8215   13.3639 H   0  0  0  0  0  0  0  0  0  0  0  0
   15.8229  -17.1598   11.8389 H   0  0  0  0  0  0  0  0  0  0  0  0
   15.2998  -17.9926   13.3314 H   0  0  0  0  0  0  0  0  0  0  0  0
   13.0809  -17.3371   13.1345 H   0  0  0  0  0  0  0  0  0  0  0  0
   12.1296  -14.4660   13.1943 H   0  0  0  0  0  0  0  0  0  0  0  0
   12.2120  -15.6697   14.4865 H   0  0  0  0  0  0  0  0  0  0  0  0
   11.1320  -15.8736   13.1773 H   0  0  0  0  0  0  0  0  0  0  0  0
   12.3580  -16.3037    9.4203 H   0  0  0  0  0  0  0  0  0  0  0  0
   11.7435  -14.1821   11.3697 H   0  0  0  0  0  0  0  0  0  0  0  0
   10.8768  -14.3868    8.4811 H   0  0  0  0  0  0  0  0  0  0  0  0
   12.3388  -13.5944    9.0669 H   0  0  0  0  0  0  0  0  0  0  0  0
   10.7936  -13.0193    9.6080 H   0  0  0  0  0  0  0  0  0  0  0  0
    8.3242  -15.2502   11.8657 H   0  0  0  0  0  0  0  0  0  0  0  0
    7.0549  -14.4457   10.4089 H   0  0  0  0  0  0  0  0  0  0  0  0
    9.2356  -15.6954    8.7695 H   0  0  0  0  0  0  0  0  0  0  0  0
    7.9806  -14.7935    7.9310 H   0  0  0  0  0  0  0  0  0  0  0  0
    7.5739  -16.1362    9.0186 H   0  0  0  0  0  0  0  0  0  0  0  0
    5.9210  -12.8953   10.9371 H   0  0  0  0  0  0  0  0  0  0  0  0
    5.8810  -11.4285    9.9618 H   0  0  0  0  0  0  0  0  0  0  0  0
    6.0599  -11.3234   11.7429 H   0  0  0  0  0  0  0  0  0  0  0  0
    7.9459  -10.1035   11.6905 H   0  0  0  0  0  0  0  0  0  0  0  0
   10.2778   -9.5315   10.9487 H   0  0  0  0  0  0  0  0  0  0  0  0
   10.3763  -11.1912   10.3265 H   0  0  0  0  0  0  0  0  0  0  0  0
   10.2049  -12.1803   12.4311 H   0  0  0  0  0  0  0  0  0  0  0  0
   12.2537   -9.9088   12.5041 H   0  0  0  0  0  0  0  0  0  0  0  0
   12.3763  -11.2487   11.3670 H   0  0  0  0  0  0  0  0  0  0  0  0
   12.4341  -11.5733   13.0921 H   0  0  0  0  0  0  0  0  0  0  0  0
    9.8633   -9.3099   13.4456 H   0  0  0  0  0  0  0  0  0  0  0  0
   10.3455  -10.6570   14.4952 H   0  0  0  0  0  0  0  0  0  0  0  0
    8.7744  -10.6853   13.6899 H   0  0  0  0  0  0  0  0  0  0  0  0
   10.6159  -10.3334    8.8207 H   0  0  0  0  0  0  0  0  0  0  0  0
   10.2509   -8.6315    8.7565 H   0  0  0  0  0  0  0  0  0  0  0  0
   10.3557   -9.6780    7.2878 H   0  0  0  0  0  0  0  0  0  0  0  0
    8.2736   -9.9296    6.4581 H   0  0  0  0  0  0  0  0  0  0  0  0
    5.8100   -8.9270    7.8186 H   0  0  0  0  0  0  0  0  0  0  0  0
    6.0915  -10.4082    6.9572 H   0  0  0  0  0  0  0  0  0  0  0  0
    6.3401   -7.6059    5.6459 H   0  0  0  0  0  0  0  0  0  0  0  0
    6.3771  -10.3494    4.3638 H   0  0  0  0  0  0  0  0  0  0  0  0
    7.6955   -9.1739    4.4168 H   0  0  0  0  0  0  0  0  0  0  0  0
    6.2499   -8.7910    3.5120 H   0  0  0  0  0  0  0  0  0  0  0  0
    4.0045   -9.5164    5.7001 H   0  0  0  0  0  0  0  0  0  0  0  0
    4.1565   -8.0917    4.6377 H   0  0  0  0  0  0  0  0  0  0  0  0
    4.1083   -7.8862    6.3913 H   0  0  0  0  0  0  0  0  0  0  0  0
    6.1178   -6.9756    7.7535 H   0  0  0  0  0  0  0  0  0  0  0  0
    6.7084   -5.5737    6.8961 H   0  0  0  0  0  0  0  0  0  0  0  0
    6.7639   -5.6672    8.6704 H   0  0  0  0  0  0  0  0  0  0  0  0
    9.6353   -6.3478    9.0260 H   0  0  0  0  0  0  0  0  0  0  0  0
   11.3479   -5.2650    7.4852 H   0  0  0  0  0  0  0  0  0  0  0  0
   11.7474   -8.0202    7.0719 H   0  0  0  0  0  0  0  0  0  0  0  0
   11.7556   -7.2063    8.6840 H   0  0  0  0  0  0  0  0  0  0  0  0
   12.7882   -6.6424    7.4072 H   0  0  0  0  0  0  0  0  0  0  0  0
    9.9756   -6.3664    5.0383 H   0  0  0  0  0  0  0  0  0  0  0  0
   11.4567   -5.4518    5.2031 H   0  0  0  0  0  0  0  0  0  0  0  0
    9.8568   -4.7941    5.6251 H   0  0  0  0  0  0  0  0  0  0  0  0
   12.2562   -3.5209    7.3750 H   0  0  0  0  0  0  0  0  0  0  0  0
   11.3237   -2.0324    7.4840 H   0  0  0  0  0  0  0  0  0  0  0  0
   10.7148   -3.3682    6.5339 H   0  0  0  0  0  0  0  0  0  0  0  0
  1  2  1  0  0  0  0
  1 84  1  0  0  0  0
  1 85  1  0  0  0  0
  1 86  1  0  0  0  0
  2  3  1  0  0  0  0
  2 87  1  0  0  0  0
  2 88  1  0  0  0  0
  3  4  2  0  0  0  0
  3 89  1  0  0  0  0
  4  5  1  0  0  0  0
  4 90  1  0  0  0  0
  5  6  1  0  0  0  0
  5 91  1  0  0  0  0
  5 92  1  0  0  0  0
  6  7  1  0  0  0  0
  6  8  1  0  0  0  0
  6 93  1  6  0  0  0
  7 94  1  0  0  0  0
  7 95  1  0  0  0  0
  7 96  1  0  0  0  0
  8  9  1  0  0  0  0
  8 10  1  0  0  0  0
  8 97  1  6  0  0  0
  9 98  1  0  0  0  0
 10 11  1  0  0  0  0
 10 82  1  0  0  0  0
 10 99  1  6  0  0  0
 11 12  2  0  0  0  0
 11 13  1  0  0  0  0
 13 14  1  0  0  0  0
 13100  1  0  0  0  0
 14 15  1  0  0  0  0
 14 17  1  0  0  0  0
 14101  1  6  0  0  0
 15 16  1  0  0  0  0
 15102  1  0  0  0  0
 15103  1  0  0  0  0
 16104  1  0  0  0  0
 16105  1  0  0  0  0
 16106  1  0  0  0  0
 17 18  2  0  0  0  0
 17 19  1  0  0  0  0
 19 20  1  0  0  0  0
 19 21  1  0  0  0  0
 20107  1  0  0  0  0
 20108  1  0  0  0  0
 20109  1  0  0  0  0
 21 22  1  0  0  0  0
 21110  1  0  0  0  0
 21111  1  0  0  0  0
 22 23  2  0  0  0  0
 22 24  1  0  0  0  0
 24 25  1  0  0  0  0
 24 26  1  0  0  0  0
 25112  1  0  0  0  0
 25113  1  0  0  0  0
 25114  1  0  0  0  0
 26 31  1  0  0  0  0
 26 27  1  0  0  0  0
 26115  1  6  0  0  0
 27 28  1  0  0  0  0
 27116  1  0  0  0  0
 27117  1  0  0  0  0
 28 29  1  0  0  0  0
 28 30  1  0  0  0  0
 28118  1  0  0  0  0
 29119  1  0  0  0  0
 29120  1  0  0  0  0
 29121  1  0  0  0  0
 30122  1  0  0  0  0
 30123  1  0  0  0  0
 30124  1  0  0  0  0
 31 32  2  0  0  0  0
 31 33  1  0  0  0  0
 33 34  1  0  0  0  0
 33125  1  0  0  0  0
 34 38  1  0  0  0  0
 34 35  1  0  0  0  0
 34126  1  6  0  0  0
 35 36  1  0  0  0  0
 35 37  1  0  0  0  0
 35127  1  0  0  0  0
 36128  1  0  0  0  0
 36129  1  0  0  0  0
 36130  1  0  0  0  0
 37131  1  0  0  0  0
 37132  1  0  0  0  0
 37133  1  0  0  0  0
 38 39  2  0  0  0  0
 38 40  1  0  0  0  0
 40 41  1  0  0  0  0
 40 42  1  0  0  0  0
 41134  1  0  0  0  0
 41135  1  0  0  0  0
 41136  1  0  0  0  0
 42 43  1  0  0  0  0
 42 44  1  0  0  0  0
 42137  1  1  0  0  0
 43138  1  0  0  0  0
 43139  1  0  0  0  0
 43140  1  0  0  0  0
 44 45  2  0  0  0  0
 44 46  1  0  0  0  0
 46 47  1  0  0  0  0
 46141  1  0  0  0  0
 47 48  1  0  0  0  0
 47 49  1  0  0  0  0
 47142  1  1  0  0  0
 48143  1  0  0  0  0
 48144  1  0  0  0  0
 48145  1  0  0  0  0
 49 50  2  0  0  0  0
 49 51  1  0  0  0  0
 51 52  1  0  0  0  0
 51146  1  0  0  0  0
 52 54  1  0  0  0  0
 52 53  1  0  0  0  0
 52147  1  1  0  0  0
 53148  1  0  0  0  0
 53149  1  0  0  0  0
 53150  1  0  0  0  0
 54 55  2  0  0  0  0
 54 56  1  0  0  0  0
 56 57  1  0  0  0  0
 56 58  1  0  0  0  0
 57151  1  0  0  0  0
 57152  1  0  0  0  0
 57153  1  0  0  0  0
 58 59  1  0  0  0  0
 58 63  1  0  0  0  0
 58154  1  1  0  0  0
 59 60  1  0  0  0  0
 59155  1  0  0  0  0
 59156  1  0  0  0  0
 60 61  1  0  0  0  0
 60 62  1  0  0  0  0
 60157  1  0  0  0  0
 61158  1  0  0  0  0
 61159  1  0  0  0  0
 61160  1  0  0  0  0
 62161  1  0  0  0  0
 62162  1  0  0  0  0
 62163  1  0  0  0  0
 63 64  2  0  0  0  0
 63 65  1  0  0  0  0
 65 66  1  0  0  0  0
 65 67  1  0  0  0  0
 66164  1  0  0  0  0
 66165  1  0  0  0  0
 66166  1  0  0  0  0
 67 68  1  0  0  0  0
 67 72  1  0  0  0  0
 67167  1  6  0  0  0
 68 69  1  0  0  0  0
 68168  1  0  0  0  0
 68169  1  0  0  0  0
 69 70  1  0  0  0  0
 69 71  1  0  0  0  0
 69170  1  0  0  0  0
 70171  1  0  0  0  0
 70172  1  0  0  0  0
 70173  1  0  0  0  0
 71174  1  0  0  0  0
 71175  1  0  0  0  0
 71176  1  0  0  0  0
 72 73  2  0  0  0  0
 72 74  1  0  0  0  0
 74 75  1  0  0  0  0
 74 76  1  0  0  0  0
 75177  1  0  0  0  0
 75178  1  0  0  0  0
 75179  1  0  0  0  0
 76 77  1  0  0  0  0
 76 80  1  0  0  0  0
 76180  1  1  0  0  0
 77 78  1  0  0  0  0
 77 79  1  0  0  0  0
 77181  1  0  0  0  0
 78182  1  0  0  0  0
 78183  1  0  0  0  0
 78184  1  0  0  0  0
 79185  1  0  0  0  0
 79186  1  0  0  0  0
 79187  1  0  0  0  0
 80 81  2  0  0  0  0
 80 82  1  0  0  0  0
 82 83  1  0  0  0  0
 83188  1  0  0  0  0
 83189  1  0  0  0  0
 83190  1  0  0  0  0
M  END
>  <Energy>
1092.7

$$$$