119
 OpenBabel03292021593D

200200  0  0  1  0  0  0  0  0999 V2000
    4.9635   -3.6288    2.0327 C   0  0  0  0  0  0  0  0  0  0  0  0
    6.4676   -3.5677    2.2088 C   0  0  0  0  0  0  0  0  0  0  0  0
    7.1457   -2.8962    3.1541 C   0  0  0  0  0  0  0  0  0  0  0  0
    8.7551   -2.8277    3.3361 C   0  0  0  0  0  0  0  0  0  0  0  0
   10.0748   -1.7857    3.7558 C   0  0  1  0  0  0  0  0  0  0  0  0
    9.4003   -0.6226    4.5292 C   0  0  0  0  0  0  0  0  0  0  0  0
   11.4799   -2.4282    4.5342 C   0  0  1  0  0  0  0  0  0  0  0  0
   11.4912   -3.8509    4.4243 O   0  0  0  0  0  0  0  0  0  0  0  0
   13.1025   -1.7014    4.8102 C   0  0  1  0  0  0  0  0  0  0  0  0
   14.8293   -1.9428    4.2753 C   0  0  0  0  0  0  0  0  0  0  0  0
   15.1033   -2.2384    3.1115 O   0  0  0  0  0  0  0  0  0  0  0  0
   15.9650   -1.6589    5.2213 N   0  0  0  0  0  0  0  0  0  0  0  0
   17.6395   -1.4838    4.9444 C   0  0  1  0  0  0  0  0  0  0  0  0
   18.6704   -2.6420    5.2501 C   0  0  1  0  0  0  0  0  0  0  0  0
   18.5572   -4.0628    4.7377 C   0  0  0  0  0  0  0  0  0  0  0  0
   19.9508   -2.2168    4.7000 O   0  0  0  0  0  0  0  0  0  0  0  0
   18.3967   -0.0395    5.4935 C   0  0  0  0  0  0  0  0  0  0  0  0
   17.7798    1.0074    5.2065 O   0  0  0  0  0  0  0  0  0  0  0  0
   19.6506    0.1306    6.1943 N   0  0  0  0  0  0  0  0  0  0  0  0
   20.1417   -0.8248    7.1949 C   0  0  0  0  0  0  0  0  0  0  0  0
   20.1978    1.5318    6.4423 C   0  0  0  0  0  0  0  0  0  0  0  0
   21.1155    2.5509    5.6381 C   0  0  0  0  0  0  0  0  0  0  0  0
   20.8187    3.7528    5.7603 O   0  0  0  0  0  0  0  0  0  0  0  0
   22.3134    2.2337    4.9923 N   0  0  0  0  0  0  0  0  0  0  0  0
   23.0393    0.9948    5.2171 C   0  0  0  0  0  0  0  0  0  0  0  0
   23.0079    3.3362    4.2069 C   0  0  2  0  0  0  0  0  0  0  0  0
   23.2164    2.9648    2.7042 C   0  0  0  0  0  0  0  0  0  0  0  0
   21.9350    2.9019    1.8504 C   0  0  0  0  0  0  0  0  0  0  0  0
   22.2591    2.5951    0.3841 C   0  0  0  0  0  0  0  0  0  0  0  0
   20.9533    1.8473    2.3334 C   0  0  0  0  0  0  0  0  0  0  0  0
   24.3890    3.8391    4.7394 C   0  0  0  0  0  0  0  0  0  0  0  0
   25.3010    3.0419    5.0240 O   0  0  0  0  0  0  0  0  0  0  0  0
   24.7271    5.1865    4.7550 N   0  0  0  0  0  0  0  0  0  0  0  0
   23.8328    6.3550    4.9604 C   0  0  1  0  0  0  0  0  0  0  0  0
   24.4335    7.4457    5.8862 C   0  0  1  0  0  0  0  0  0  0  0  0
   23.3527    8.4872    6.2284 C   0  0  0  0  0  0  0  0  0  0  0  0
   25.1029    6.9527    7.1900 C   0  0  0  0  0  0  0  0  0  0  0  0
   25.8726    8.0873    7.8775 C   0  0  0  0  0  0  0  0  0  0  0  0
   23.2293    6.8469    3.5830 C   0  0  0  0  0  0  0  0  0  0  0  0
   22.3145    6.1370    3.1285 O   0  0  0  0  0  0  0  0  0  0  0  0
   23.6949    7.9016    2.7964 N   0  0  0  0  0  0  0  0  0  0  0  0
   24.4848    9.0516    3.2308 C   0  0  0  0  0  0  0  0  0  0  0  0
   23.0005    8.0729    1.4806 C   0  0  2  0  0  0  0  0  0  0  0  0
   23.9616    8.4004    0.3209 C   0  0  0  0  0  0  0  0  0  0  0  0
   25.0823    7.3552    0.1587 C   0  0  0  0  0  0  0  0  0  0  0  0
   24.5425    5.9816   -0.2414 C   0  0  0  0  0  0  0  0  0  0  0  0
   26.0979    7.8354   -0.8758 C   0  0  0  0  0  0  0  0  0  0  0  0
   21.8725    9.1294    1.5369 C   0  0  0  0  0  0  0  0  0  0  0  0
   22.0926   10.3011    1.9181 O   0  0  0  0  0  0  0  0  0  0  0  0
   20.6020    8.8147    1.1477 N   0  0  0  0  0  0  0  0  0  0  0  0
   19.9984    7.4878    0.9200 C   0  0  1  0  0  0  0  0  0  0  0  0
   18.6138    7.4504    1.5019 C   0  0  0  0  0  0  0  0  0  0  0  0
   20.3048    6.9799   -0.5213 C   0  0  0  0  0  0  0  0  0  0  0  0
   21.4994    6.9082   -0.9015 O   0  0  0  0  0  0  0  0  0  0  0  0
   19.4460    6.5805   -1.4913 N   0  0  0  0  0  0  0  0  0  0  0  0
   18.0402    6.8406   -1.7683 C   0  0  2  0  0  0  0  0  0  0  0  0
   17.6913    8.3225   -1.7187 C   0  0  0  0  0  0  0  0  0  0  0  0
   17.1017    5.9051   -0.9818 C   0  0  0  0  0  0  0  0  0  0  0  0
   16.3160    6.4058   -0.1630 O   0  0  0  0  0  0  0  0  0  0  0  0
   17.2201    4.5214   -1.2214 N   0  0  0  0  0  0  0  0  0  0  0  0
   17.0425    4.0633   -2.5935 C   0  0  0  0  0  0  0  0  0  0  0  0
   16.7575    3.5348   -0.2057 C   0  0  1  0  0  0  0  0  0  0  0  0
   17.5952    3.5358    1.0769 C   0  0  0  0  0  0  0  0  0  0  0  0
   17.0242    2.6814    2.2177 C   0  0  0  0  0  0  0  0  0  0  0  0
   17.2814    1.1898    2.0289 C   0  0  0  0  0  0  0  0  0  0  0  0
   17.5107    3.2656    3.5425 C   0  0  0  0  0  0  0  0  0  0  0  0
   15.2095    3.4178   -0.1228 C   0  0  0  0  0  0  0  0  0  0  0  0
   14.6714    2.5240   -0.7866 O   0  0  0  0  0  0  0  0  0  0  0  0
   14.4559    4.3640    0.5477 N   0  0  0  0  0  0  0  0  0  0  0  0
   14.9254    5.0917    1.7300 C   0  0  0  0  0  0  0  0  0  0  0  0
   12.9898    4.3983    0.3950 C   0  0  1  0  0  0  0  0  0  0  0  0
   12.3834    4.2149   -1.0000 C   0  0  0  0  0  0  0  0  0  0  0  0
   10.8514    4.4195   -1.0172 C   0  0  0  0  0  0  0  0  0  0  0  0
   10.4344    5.8279   -0.5881 C   0  0  0  0  0  0  0  0  0  0  0  0
   10.3015    4.1080   -2.4074 C   0  0  0  0  0  0  0  0  0  0  0  0
   12.3094    3.7784    1.6427 C   0  0  0  0  0  0  0  0  0  0  0  0
   11.9093    4.6003    2.4768 O   0  0  0  0  0  0  0  0  0  0  0  0
   12.3033    2.4198    1.9109 N   0  0  0  0  0  0  0  0  0  0  0  0
   11.9947    1.4692    0.8465 C   0  0  0  0  0  0  0  0  0  0  0  0
   12.7955    1.8842    3.2543 C   0  0  1  0  0  0  0  0  0  0  0  0
   12.4956    2.7735    4.4944 C   0  0  0  0  0  0  0  0  0  0  0  0
   13.5361    3.8459    4.8075 C   0  0  0  0  0  0  0  0  0  0  0  0
   11.0352    3.1900    4.6907 C   0  0  0  0  0  0  0  0  0  0  0  0
   12.6642    0.3106    3.5495 C   0  0  0  0  0  0  0  0  0  0  0  0
   12.5316   -0.4883    2.5961 O   0  0  0  0  0  0  0  0  0  0  0  0
   12.8718   -0.2424    4.8360 N   0  0  0  0  0  0  0  0  0  0  0  0
   12.2235    0.2013    6.0719 C   0  0  0  0  0  0  0  0  0  0  0  0
    4.6803   -4.4725    1.3896 H   0  0  0  0  0  0  0  0  0  0  0  0
    4.5652   -2.7285    1.5449 H   0  0  0  0  0  0  0  0  0  0  0  0
    4.4274   -3.7727    2.9818 H   0  0  0  0  0  0  0  0  0  0  0  0
    7.0226   -4.1303    1.4518 H   0  0  0  0  0  0  0  0  0  0  0  0
    6.5448   -2.3084    3.8730 H   0  0  0  0  0  0  0  0  0  0  0  0
    8.5749   -3.0098    4.4012 H   0  0  0  0  0  0  0  0  0  0  0  0
    8.5628   -2.0256    2.6013 H   0  0  0  0  0  0  0  0  0  0  0  0
   10.4162   -1.4135    2.7834 H   0  0  0  0  0  0  0  0  0  0  0  0
    9.2797   -0.8599    5.5912 H   0  0  0  0  0  0  0  0  0  0  0  0
    8.3932   -0.3978    4.1495 H   0  0  0  0  0  0  0  0  0  0  0  0
    9.9566    0.3024    4.4169 H   0  0  0  0  0  0  0  0  0  0  0  0
   11.1080   -2.3028    5.5633 H   0  0  0  0  0  0  0  0  0  0  0  0
   10.6367   -4.1790    4.7509 H   0  0  0  0  0  0  0  0  0  0  0  0
   13.2713   -2.0292    5.8499 H   0  0  0  0  0  0  0  0  0  0  0  0
   15.6841   -1.2267    6.0887 H   0  0  0  0  0  0  0  0  0  0  0  0
   17.6626   -1.3705    3.8515 H   0  0  0  0  0  0  0  0  0  0  0  0
   18.7767   -2.7371    6.3290 H   0  0  0  0  0  0  0  0  0  0  0  0
   18.7007   -4.1235    3.6550 H   0  0  0  0  0  0  0  0  0  0  0  0
   17.6484   -4.5664    5.0554 H   0  0  0  0  0  0  0  0  0  0  0  0
   19.4075   -4.6341    5.1566 H   0  0  0  0  0  0  0  0  0  0  0  0
   20.6522   -2.8349    4.9705 H   0  0  0  0  0  0  0  0  0  0  0  0
   20.9471   -1.4320    6.7753 H   0  0  0  0  0  0  0  0  0  0  0  0
   19.3311   -1.4212    7.6057 H   0  0  0  0  0  0  0  0  0  0  0  0
   20.5756   -0.3131    8.0646 H   0  0  0  0  0  0  0  0  0  0  0  0
   20.7332    1.5043    7.4028 H   0  0  0  0  0  0  0  0  0  0  0  0
   19.3009    2.1257    6.6649 H   0  0  0  0  0  0  0  0  0  0  0  0
   22.3475    0.1731    5.4037 H   0  0  0  0  0  0  0  0  0  0  0  0
   23.6850    1.1194    6.0916 H   0  0  0  0  0  0  0  0  0  0  0  0
   23.6572    0.7412    4.3529 H   0  0  0  0  0  0  0  0  0  0  0  0
   22.3406    4.1904    4.2232 H   0  0  0  0  0  0  0  0  0  0  0  0
   23.8780    3.7146    2.2465 H   0  0  0  0  0  0  0  0  0  0  0  0
   23.7611    2.0166    2.6147 H   0  0  0  0  0  0  0  0  0  0  0  0
   21.4423    3.8813    1.8830 H   0  0  0  0  0  0  0  0  0  0  0  0
   22.6926    1.5946    0.2763 H   0  0  0  0  0  0  0  0  0  0  0  0
   22.9572    3.3221   -0.0368 H   0  0  0  0  0  0  0  0  0  0  0  0
   21.3444    2.6259   -0.2212 H   0  0  0  0  0  0  0  0  0  0  0  0
   21.4363    0.8808    2.5061 H   0  0  0  0  0  0  0  0  0  0  0  0
   20.1748    1.7017    1.5859 H   0  0  0  0  0  0  0  0  0  0  0  0
   20.4555    2.1589    3.2474 H   0  0  0  0  0  0  0  0  0  0  0  0
   25.7000    5.3196    5.0032 H   0  0  0  0  0  0  0  0  0  0  0  0
   22.9712    5.9521    5.5095 H   0  0  0  0  0  0  0  0  0  0  0  0
   25.2555    7.9198    5.3620 H   0  0  0  0  0  0  0  0  0  0  0  0
   22.7522    8.1657    7.0853 H   0  0  0  0  0  0  0  0  0  0  0  0
   22.6568    8.6614    5.4034 H   0  0  0  0  0  0  0  0  0  0  0  0
   23.8073    9.4531    6.4712 H   0  0  0  0  0  0  0  0  0  0  0  0
   25.8228    6.1562    6.9758 H   0  0  0  0  0  0  0  0  0  0  0  0
   24.3580    6.5418    7.8791 H   0  0  0  0  0  0  0  0  0  0  0  0
   26.6106    8.5275    7.1966 H   0  0  0  0  0  0  0  0  0  0  0  0
   26.4085    7.7158    8.7556 H   0  0  0  0  0  0  0  0  0  0  0  0
   25.2048    8.8878    8.2106 H   0  0  0  0  0  0  0  0  0  0  0  0
   25.3690    8.7499    3.7740 H   0  0  0  0  0  0  0  0  0  0  0  0
   23.8584    9.7268    3.8228 H   0  0  0  0  0  0  0  0  0  0  0  0
   24.8718    9.6224    2.3853 H   0  0  0  0  0  0  0  0  0  0  0  0
   22.5494    7.1232    1.2243 H   0  0  0  0  0  0  0  0  0  0  0  0
   23.3912    8.4797   -0.6141 H   0  0  0  0  0  0  0  0  0  0  0  0
   24.3989    9.3984    0.4455 H   0  0  0  0  0  0  0  0  0  0  0  0
   25.6143    7.2449    1.1110 H   0  0  0  0  0  0  0  0  0  0  0  0
   24.0137    6.0261   -1.1991 H   0  0  0  0  0  0  0  0  0  0  0  0
   23.8505    5.5856    0.5092 H   0  0  0  0  0  0  0  0  0  0  0  0
   25.3547    5.2564   -0.3365 H   0  0  0  0  0  0  0  0  0  0  0  0
   25.6274    7.9901   -1.8518 H   0  0  0  0  0  0  0  0  0  0  0  0
   26.9030    7.1030   -0.9944 H   0  0  0  0  0  0  0  0  0  0  0  0
   26.5505    8.7811   -0.5599 H   0  0  0  0  0  0  0  0  0  0  0  0
   19.9618    9.6019    1.2193 H   0  0  0  0  0  0  0  0  0  0  0  0
   20.5612    6.7787    1.5397 H   0  0  0  0  0  0  0  0  0  0  0  0
   17.9401    8.1850    1.0616 H   0  0  0  0  0  0  0  0  0  0  0  0
   18.6452    7.6731    2.5785 H   0  0  0  0  0  0  0  0  0  0  0  0
   18.1843    6.4642    1.4047 H   0  0  0  0  0  0  0  0  0  0  0  0
   19.9853    6.3063   -2.2974 H   0  0  0  0  0  0  0  0  0  0  0  0
   17.9067    6.5765   -2.8268 H   0  0  0  0  0  0  0  0  0  0  0  0
   18.1533    8.8496   -0.8814 H   0  0  0  0  0  0  0  0  0  0  0  0
   16.6083    8.4885   -1.6739 H   0  0  0  0  0  0  0  0  0  0  0  0
   18.0653    8.8174   -2.6221 H   0  0  0  0  0  0  0  0  0  0  0  0
   17.5646    4.6908   -3.3139 H   0  0  0  0  0  0  0  0  0  0  0  0
   15.9763    4.0852   -2.8295 H   0  0  0  0  0  0  0  0  0  0  0  0
   17.4225    3.0424   -2.7000 H   0  0  0  0  0  0  0  0  0  0  0  0
   17.0421    2.5592   -0.6385 H   0  0  0  0  0  0  0  0  0  0  0  0
   17.7493    4.5528    1.4196 H   0  0  0  0  0  0  0  0  0  0  0  0
   18.6119    3.2003    0.8345 H   0  0  0  0  0  0  0  0  0  0  0  0
   15.9385    2.7640    2.2464 H   0  0  0  0  0  0  0  0  0  0  0  0
   18.3403    0.9390    1.9890 H   0  0  0  0  0  0  0  0  0  0  0  0
   16.8253    0.8340    1.0979 H   0  0  0  0  0  0  0  0  0  0  0  0
   16.8337    0.6121    2.8402 H   0  0  0  0  0  0  0  0  0  0  0  0
   18.5827    3.1234    3.6896 H   0  0  0  0  0  0  0  0  0  0  0  0
   16.9576    2.8377    4.3777 H   0  0  0  0  0  0  0  0  0  0  0  0
   17.3125    4.3409    3.5976 H   0  0  0  0  0  0  0  0  0  0  0  0
   15.9776    5.3309    1.7226 H   0  0  0  0  0  0  0  0  0  0  0  0
   14.7619    4.4563    2.5956 H   0  0  0  0  0  0  0  0  0  0  0  0
   14.3695    6.0227    1.8651 H   0  0  0  0  0  0  0  0  0  0  0  0
   12.8074    5.4738    0.5418 H   0  0  0  0  0  0  0  0  0  0  0  0
   12.6169    3.2413   -1.4350 H   0  0  0  0  0  0  0  0  0  0  0  0
   12.8520    4.9433   -1.6774 H   0  0  0  0  0  0  0  0  0  0  0  0
   10.3874    3.7127   -0.3200 H   0  0  0  0  0  0  0  0  0  0  0  0
   10.9093    6.5919   -1.2117 H   0  0  0  0  0  0  0  0  0  0  0  0
   10.6997    6.0279    0.4543 H   0  0  0  0  0  0  0  0  0  0  0  0
    9.3489    5.9481   -0.6626 H   0  0  0  0  0  0  0  0  0  0  0  0
   10.7277    4.7754   -3.1631 H   0  0  0  0  0  0  0  0  0  0  0  0
    9.2126    4.2202   -2.4243 H   0  0  0  0  0  0  0  0  0  0  0  0
   10.5336    3.0761   -2.6915 H   0  0  0  0  0  0  0  0  0  0  0  0
   11.7730    1.9548   -0.0972 H   0  0  0  0  0  0  0  0  0  0  0  0
   11.0788    0.9377    1.1253 H   0  0  0  0  0  0  0  0  0  0  0  0
   12.8245    0.7820    0.6785 H   0  0  0  0  0  0  0  0  0  0  0  0
   13.8840    1.9294    3.1024 H   0  0  0  0  0  0  0  0  0  0  0  0
   12.7077    2.1569    5.3421 H   0  0  0  0  0  0  0  0  0  0  0  0
   13.3816    4.7864    4.2857 H   0  0  0  0  0  0  0  0  0  0  0  0
   14.5418    3.4674    4.5895 H   0  0  0  0  0  0  0  0  0  0  0  0
   13.5227    4.0657    5.8811 H   0  0  0  0  0  0  0  0  0  0  0  0
   10.7881    4.1704    4.2826 H   0  0  0  0  0  0  0  0  0  0  0  0
   10.8048    3.2525    5.7575 H   0  0  0  0  0  0  0  0  0  0  0  0
   10.3483    2.4634    4.2443 H   0  0  0  0  0  0  0  0  0  0  0  0
   12.9570    0.7270    6.6880 H   0  0  0  0  0  0  0  0  0  0  0  0
   11.8699   -0.6425    6.6699 H   0  0  0  0  0  0  0  0  0  0  0  0
   11.3489    0.8126    5.8762 H   0  0  0  0  0  0  0  0  0  0  0  0
  1  2  1  0  0  0  0
  1 88  1  0  0  0  0
  1 89  1  0  0  0  0
  1 90  1  0  0  0  0
  2  3  2  0  0  0  0
  2 91  1  0  0  0  0
  3  4  1  0  0  0  0
  3 92  1  0  0  0  0
  4  5  1  0  0  0  0
  4 93  1  0  0  0  0
  4 94  1  0  0  0  0
  5  6  1  0  0  0  0
  5  7  1  0  0  0  0
  5 95  1  6  0  0  0
  6 96  1  0  0  0  0
  6 97  1  0  0  0  0
  6 98  1  0  0  0  0
  7  8  1  0  0  0  0
  7  9  1  0  0  0  0
  7 99  1  1  0  0  0
  8100  1  0  0  0  0
  9 10  1  0  0  0  0
  9 86  1  0  0  0  0
  9101  1  1  0  0  0
 10 11  2  0  0  0  0
 10 12  1  0  0  0  0
 12 13  1  0  0  0  0
 12102  1  0  0  0  0
 13 14  1  0  0  0  0
 13 17  1  0  0  0  0
 13103  1  1  0  0  0
 14 15  1  0  0  0  0
 14 16  1  0  0  0  0
 14104  1  1  0  0  0
 15105  1  0  0  0  0
 15106  1  0  0  0  0
 15107  1  0  0  0  0
 16108  1  0  0  0  0
 17 18  2  0  0  0  0
 17 19  1  0  0  0  0
 19 20  1  0  0  0  0
 19 21  1  0  0  0  0
 20109  1  0  0  0  0
 20110  1  0  0  0  0
 20111  1  0  0  0  0
 21 22  1  0  0  0  0
 21112  1  0  0  0  0
 21113  1  0  0  0  0
 22 23  2  0  0  0  0
 22 24  1  0  0  0  0
 24 25  1  0  0  0  0
 24 26  1  0  0  0  0
 25114  1  0  0  0  0
 25115  1  0  0  0  0
 25116  1  0  0  0  0
 26 31  1  0  0  0  0
 26 27  1  0  0  0  0
 26117  1  1  0  0  0
 27 28  1  0  0  0  0
 27118  1  0  0  0  0
 27119  1  0  0  0  0
 28 29  1  0  0  0  0
 28 30  1  0  0  0  0
 28120  1  0  0  0  0
 29121  1  0  0  0  0
 29122  1  0  0  0  0
 29123  1  0  0  0  0
 30124  1  0  0  0  0
 30125  1  0  0  0  0
 30126  1  0  0  0  0
 31 32  2  0  0  0  0
 31 33  1  0  0  0  0
 33 34  1  0  0  0  0
 33127  1  0  0  0  0
 34 35  1  0  0  0  0
 34 39  1  0  0  0  0
 34128  1  1  0  0  0
 35 36  1  0  0  0  0
 35 37  1  0  0  0  0
 35129  1  6  0  0  0
 36130  1  0  0  0  0
 36131  1  0  0  0  0
 36132  1  0  0  0  0
 37 38  1  0  0  0  0
 37133  1  0  0  0  0
 37134  1  0  0  0  0
 38135  1  0  0  0  0
 38136  1  0  0  0  0
 38137  1  0  0  0  0
 39 40  2  0  0  0  0
 39 41  1  0  0  0  0
 41 42  1  0  0  0  0
 41 43  1  0  0  0  0
 42138  1  0  0  0  0
 42139  1  0  0  0  0
 42140  1  0  0  0  0
 43 48  1  0  0  0  0
 43 44  1  0  0  0  0
 43141  1  6  0  0  0
 44 45  1  0  0  0  0
 44142  1  0  0  0  0
 44143  1  0  0  0  0
 45 46  1  0  0  0  0
 45 47  1  0  0  0  0
 45144  1  0  0  0  0
 46145  1  0  0  0  0
 46146  1  0  0  0  0
 46147  1  0  0  0  0
 47148  1  0  0  0  0
 47149  1  0  0  0  0
 47150  1  0  0  0  0
 48 49  2  0  0  0  0
 48 50  1  0  0  0  0
 50 51  1  0  0  0  0
 50151  1  0  0  0  0
 51 52  1  0  0  0  0
 51 53  1  0  0  0  0
 51152  1  1  0  0  0
 52153  1  0  0  0  0
 52154  1  0  0  0  0
 52155  1  0  0  0  0
 53 54  2  0  0  0  0
 53 55  1  0  0  0  0
 55 56  1  0  0  0  0
 55156  1  0  0  0  0
 56 58  1  0  0  0  0
 56 57  1  0  0  0  0
 56157  1  6  0  0  0
 57158  1  0  0  0  0
 57159  1  0  0  0  0
 57160  1  0  0  0  0
 58 59  2  0  0  0  0
 58 60  1  0  0  0  0
 60 61  1  0  0  0  0
 60 62  1  0  0  0  0
 61161  1  0  0  0  0
 61162  1  0  0  0  0
 61163  1  0  0  0  0
 62 63  1  0  0  0  0
 62 67  1  0  0  0  0
 62164  1  6  0  0  0
 63 64  1  0  0  0  0
 63165  1  0  0  0  0
 63166  1  0  0  0  0
 64 65  1  0  0  0  0
 64 66  1  0  0  0  0
 64167  1  0  0  0  0
 65168  1  0  0  0  0
 65169  1  0  0  0  0
 65170  1  0  0  0  0
 66171  1  0  0  0  0
 66172  1  0  0  0  0
 66173  1  0  0  0  0
 67 68  2  0  0  0  0
 67 69  1  0  0  0  0
 69 70  1  0  0  0  0
 69 71  1  0  0  0  0
 70174  1  0  0  0  0
 70175  1  0  0  0  0
 70176  1  0  0  0  0
 71 72  1  0  0  0  0
 71 76  1  0  0  0  0
 71177  1  1  0  0  0
 72 73  1  0  0  0  0
 72178  1  0  0  0  0
 72179  1  0  0  0  0
 73 74  1  0  0  0  0
 73 75  1  0  0  0  0
 73180  1  0  0  0  0
 74181  1  0  0  0  0
 74182  1  0  0  0  0
 74183  1  0  0  0  0
 75184  1  0  0  0  0
 75185  1  0  0  0  0
 75186  1  0  0  0  0
 76 77  2  0  0  0  0
 76 78  1  0  0  0  0
 78 79  1  0  0  0  0
 78 80  1  0  0  0  0
 79187  1  0  0  0  0
 79188  1  0  0  0  0
 79189  1  0  0  0  0
 80 81  1  0  0  0  0
 80 84  1  0  0  0  0
 80190  1  6  0  0  0
 81 82  1  0  0  0  0
 81 83  1  0  0  0  0
 81191  1  0  0  0  0
 82192  1  0  0  0  0
 82193  1  0  0  0  0
 82194  1  0  0  0  0
 83195  1  0  0  0  0
 83196  1  0  0  0  0
 83197  1  0  0  0  0
 84 85  2  0  0  0  0
 84 86  1  0  0  0  0
 86 87  1  0  0  0  0
 87198  1  0  0  0  0
 87199  1  0  0  0  0
 87200  1  0  0  0  0
M  END
>  <Energy>
699.215

$$$$