11790
  -OEChem-03242010103D

 33 36  0     0  0  0  0  0  0999 V2000
    0.3434    0.2836    0.0041 O   0  0  0  0  0  0  0  0  0  0  0  0
   -0.0962   -3.7568   -0.1331 O   0  0  0  0  0  0  0  0  0  0  0  0
   -0.9238   -0.2547   -0.0063 C   0  0  0  0  0  0  0  0  0  0  0  0
   -2.0182    0.6400    0.0355 C   0  0  0  0  0  0  0  0  0  0  0  0
   -1.1344   -1.6342   -0.0549 C   0  0  0  0  0  0  0  0  0  0  0  0
   -3.3316    0.1079    0.0261 C   0  0  0  0  0  0  0  0  0  0  0  0
    1.4373   -0.5642   -0.0406 C   0  0  0  0  0  0  0  0  0  0  0  0
   -2.4281   -2.1516   -0.0643 C   0  0  0  0  0  0  0  0  0  0  0  0
   -3.5177   -1.2827   -0.0241 C   0  0  0  0  0  0  0  0  0  0  0  0
    0.0248   -2.5400   -0.0939 C   0  0  0  0  0  0  0  0  0  0  0  0
   -1.8648    2.0423    0.0870 C   0  0  0  0  0  0  0  0  0  0  0  0
    1.3545   -1.9023   -0.0815 C   0  0  0  0  0  0  0  0  0  0  0  0
   -4.4347    0.9766    0.0676 C   0  0  0  0  0  0  0  0  0  0  0  0
    2.7378    0.1354   -0.0171 C   0  0  0  0  0  0  0  0  0  0  0  0
   -2.9723    2.8906    0.1279 C   0  0  0  0  0  0  0  0  0  0  0  0
   -4.2557    2.3582    0.1182 C   0  0  0  0  0  0  0  0  0  0  0  0
    3.8508   -0.4713    0.5707 C   0  0  0  0  0  0  0  0  0  0  0  0
    2.8614    1.4072   -0.5824 C   0  0  0  0  0  0  0  0  0  0  0  0
    5.0791    0.1894    0.5931 C   0  0  0  0  0  0  0  0  0  0  0  0
    4.0898    2.0678   -0.5599 C   0  0  0  0  0  0  0  0  0  0  0  0
    5.1986    1.4588    0.0279 C   0  0  0  0  0  0  0  0  0  0  0  0
   -2.6095   -3.2221   -0.1017 H   0  0  0  0  0  0  0  0  0  0  0  0
   -4.5207   -1.7052   -0.0319 H   0  0  0  0  0  0  0  0  0  0  0  0
   -0.8746    2.4934    0.0958 H   0  0  0  0  0  0  0  0  0  0  0  0
    2.2114   -2.5639   -0.1288 H   0  0  0  0  0  0  0  0  0  0  0  0
   -5.4491    0.5823    0.0610 H   0  0  0  0  0  0  0  0  0  0  0  0
   -2.8299    3.9667    0.1672 H   0  0  0  0  0  0  0  0  0  0  0  0
   -5.1186    3.0168    0.1500 H   0  0  0  0  0  0  0  0  0  0  0  0
    3.7940   -1.4495    1.0409 H   0  0  0  0  0  0  0  0  0  0  0  0
    2.0160    1.9020   -1.0543 H   0  0  0  0  0  0  0  0  0  0  0  0
    5.9416   -0.2822    1.0551 H   0  0  0  0  0  0  0  0  0  0  0  0
    4.1837    3.0556   -1.0014 H   0  0  0  0  0  0  0  0  0  0  0  0
    6.1548    1.9735    0.0460 H   0  0  0  0  0  0  0  0  0  0  0  0
  1  3  1  0  0  0  0
  1  7  1  0  0  0  0
  2 10  2  0  0  0  0
  3  4  1  0  0  0  0
  3  5  2  0  0  0  0
  4  6  1  0  0  0  0
  4 11  2  0  0  0  0
  5  8  1  0  0  0  0
  5 10  1  0  0  0  0
  6  9  1  0  0  0  0
  6 13  2  0  0  0  0
  7 12  2  0  0  0  0
  7 14  1  0  0  0  0
  8  9  2  0  0  0  0
  8 22  1  0  0  0  0
  9 23  1  0  0  0  0
 10 12  1  0  0  0  0
 11 15  1  0  0  0  0
 11 24  1  0  0  0  0
 12 25  1  0  0  0  0
 13 16  1  0  0  0  0
 13 26  1  0  0  0  0
 14 17  2  0  0  0  0
 14 18  1  0  0  0  0
 15 16  2  0  0  0  0
 15 27  1  0  0  0  0
 16 28  1  0  0  0  0
 17 19  1  0  0  0  0
 17 29  1  0  0  0  0
 18 20  2  0  0  0  0
 18 30  1  0  0  0  0
 19 21  2  0  0  0  0
 19 31  1  0  0  0  0
 20 21  1  0  0  0  0
 20 32  1  0  0  0  0
 21 33  1  0  0  0  0
M  END
> <PUBCHEM_COMPOUND_CID>
11790

> <PUBCHEM_CONFORMER_RMSD>
0.6

> <PUBCHEM_CONFORMER_DIVERSEORDER>
1

> <PUBCHEM_MMFF94_PARTIAL_CHARGES>
31
1 -0.16
10 0.47
11 -0.15
12 -0.14
13 -0.15
14 0.03
15 -0.15
16 -0.15
17 -0.15
18 -0.15
19 -0.15
2 -0.57
20 -0.15
21 -0.15
22 0.15
23 0.15
24 0.15
25 0.15
26 0.15
27 0.15
28 0.15
29 0.15
3 0.08
30 0.15
31 0.15
32 0.15
33 0.15
5 0.09
7 0.05
8 -0.15
9 -0.15

> <PUBCHEM_EFFECTIVE_ROTOR_COUNT>
1

> <PUBCHEM_PHARMACOPHORE_FEATURES>
6
1 1 acceptor
1 2 acceptor
6 1 3 5 7 10 12 rings
6 14 17 18 19 20 21 rings
6 3 4 5 6 8 9 rings
6 4 6 11 13 15 16 rings

> <PUBCHEM_HEAVY_ATOM_COUNT>
21

> <PUBCHEM_ATOM_DEF_STEREO_COUNT>
0

> <PUBCHEM_ATOM_UDEF_STEREO_COUNT>
0

> <PUBCHEM_BOND_DEF_STEREO_COUNT>
0

> <PUBCHEM_BOND_UDEF_STEREO_COUNT>
0

> <PUBCHEM_ISOTOPIC_ATOM_COUNT>
0

> <PUBCHEM_COMPONENT_COUNT>
1

> <PUBCHEM_CACTVS_TAUTO_COUNT>
1

> <PUBCHEM_CONFORMER_ID>
00002E0E00000001

> <PUBCHEM_MMFF94_ENERGY>
68.483

> <PUBCHEM_FEATURE_SELFOVERLAP>
30.501

> <PUBCHEM_SHAPE_FINGERPRINT>
10319926 262 18198604697249157456
10411042 1 17546727513629626286
10498660 4 18411421704485399901
10616163 171 18410293618440034579
10670039 82 18335713766698860308
10967382 1 18266742372755563317
1100329 8 17977670028643225087
11370993 70 18410853226782318556
12107183 9 18191294997644670066
12173636 292 18411696620972845956
12390115 104 18271261463892406617
12403259 415 18059573637570133624
12403260 363 18337944688243612582
12596602 18 17313100903578717440
12788726 201 17682980034299818522
13140716 1 18263926531645225395
138480 1 17474107601087646583
13965767 371 17896600574678167628
14508225 48 17551781951687227247
14739800 52 18051962912973505584
14767858 380 18269817818964645989
14790565 3 18411143532280900793
15042514 8 18120941860745754075
15196674 1 18410293618545347682
15256400 18 18410572856223957246
17492 89 18408041818880284802
17834072 32 18410858741662881320
20101258 96 17544205225518106442
20510252 161 18342745155847017435
20715895 44 18192424174016038101
21033648 29 17774422985140468408
212916 134 18270943688358181482
21524375 3 18334294253762642866
21756936 100 18271235123601674876
22149856 69 18194149360354265729
23227448 37 18411981368878413301
23366157 5 18044660793273833555
23402539 116 18341886445871476838
23559900 14 18200878366662104638
283562 15 18339641243708306939
3091708 16 9194657728113387843
335352 9 18338516331796650590
350125 39 18339363075687375273
394222 165 18262233300923588482
4214541 1 18409729569254696712
474 4 18336827476981873681
5104073 3 18334290989951541056
58051976 378 18413106143387500445
5939293 188 17257368544963239007
59755656 215 18269841922020501838
6328613 192 18334021614531082284
633830 44 18271524187057571710
7064713 232 18409444782800412540
7364860 26 18052820247625379687
7808743 9 18266459987473172000
9709674 26 18412832369240211366
9981440 41 18408322177085909875

> <PUBCHEM_SHAPE_MULTIPOLES>
420.43
9.89
3.43
0.68
7.13
1.16
0
-6.78
-0.72
-2.01
0.2
0.25
-0.06
-0.53

> <PUBCHEM_SHAPE_SELFOVERLAP>
954.842

> <PUBCHEM_SHAPE_VOLUME>
218.6

> <PUBCHEM_COORDINATE_TYPE>
2
5
10

$$$$