631105
  -OEChem-03242010103D

 47 49  0     0  0  0  0  0  0999 V2000
   -0.1552   -0.9085    0.1610 O   0  0  0  0  0  0  0  0  0  0  0  0
    0.9467    2.6074    0.0505 O   0  0  0  0  0  0  0  0  0  0  0  0
   -4.2136    1.7352   -0.0084 O   0  0  0  0  0  0  0  0  0  0  0  0
    2.1969   -0.1672   -2.2099 O   0  0  0  0  0  0  0  0  0  0  0  0
   -4.4131   -3.0064    0.1413 O   0  0  0  0  0  0  0  0  0  0  0  0
   -1.8273    2.8040   -0.0010 O   0  0  0  0  0  0  0  0  0  0  0  0
    6.1401   -0.8646    0.3663 O   0  0  0  0  0  0  0  0  0  0  0  0
   -2.1517    0.4693    0.0760 C   0  0  0  0  0  0  0  0  0  0  0  0
    0.6258    0.2365    0.1512 C   0  0  0  0  0  0  0  0  0  0  0  0
   -1.5188   -0.7706    0.1294 C   0  0  0  0  0  0  0  0  0  0  0  0
    2.0703   -0.0528    0.1874 C   0  0  0  0  0  0  0  0  0  0  0  0
    0.1408    1.4902    0.0921 C   0  0  0  0  0  0  0  0  0  0  0  0
   -1.3282    1.6879    0.0515 C   0  0  0  0  0  0  0  0  0  0  0  0
   -3.5462    0.5490    0.0444 C   0  0  0  0  0  0  0  0  0  0  0  0
   -2.2776   -1.9411    0.1510 C   0  0  0  0  0  0  0  0  0  0  0  0
    2.7988   -0.2430   -0.9886 C   0  0  0  0  0  0  0  0  0  0  0  0
   -3.6702   -1.8658    0.1199 C   0  0  0  0  0  0  0  0  0  0  0  0
   -4.3030   -0.6231    0.0668 C   0  0  0  0  0  0  0  0  0  0  0  0
    2.7142   -0.1364    1.4235 C   0  0  0  0  0  0  0  0  0  0  0  0
    4.1655   -0.5156   -0.9285 C   0  0  0  0  0  0  0  0  0  0  0  0
    4.0809   -0.4093    1.4836 C   0  0  0  0  0  0  0  0  0  0  0  0
    4.8065   -0.5990    0.3075 C   0  0  0  0  0  0  0  0  0  0  0  0
    0.7149    3.3515   -1.1303 C   0  0  0  0  0  0  0  0  0  0  0  0
   -4.5575    2.3414    1.2360 C   0  0  0  0  0  0  0  0  0  0  0  0
    1.6611   -1.3760   -2.7429 C   0  0  0  0  0  0  0  0  0  0  0  0
   -5.8316   -2.8578    0.1073 C   0  0  0  0  0  0  0  0  0  0  0  0
    6.7316   -0.9351    1.6627 C   0  0  0  0  0  0  0  0  0  0  0  0
   -1.7869   -2.9102    0.1919 H   0  0  0  0  0  0  0  0  0  0  0  0
   -5.3816   -0.5053    0.0392 H   0  0  0  0  0  0  0  0  0  0  0  0
    2.1622    0.0084    2.3495 H   0  0  0  0  0  0  0  0  0  0  0  0
    4.7328   -0.6627   -1.8442 H   0  0  0  0  0  0  0  0  0  0  0  0
    4.5152   -0.4600    2.4762 H   0  0  0  0  0  0  0  0  0  0  0  0
    1.6425    3.8790   -1.3759 H   0  0  0  0  0  0  0  0  0  0  0  0
    0.4603    2.7241   -1.9932 H   0  0  0  0  0  0  0  0  0  0  0  0
   -0.0512    4.1154   -0.9693 H   0  0  0  0  0  0  0  0  0  0  0  0
   -5.3827    1.7932    1.7012 H   0  0  0  0  0  0  0  0  0  0  0  0
   -3.7022    2.3714    1.9188 H   0  0  0  0  0  0  0  0  0  0  0  0
   -4.8855    3.3658    1.0393 H   0  0  0  0  0  0  0  0  0  0  0  0
    2.4746   -2.0269   -3.0779 H   0  0  0  0  0  0  0  0  0  0  0  0
    1.0439   -1.9046   -2.0110 H   0  0  0  0  0  0  0  0  0  0  0  0
    1.0391   -1.1231   -3.6060 H   0  0  0  0  0  0  0  0  0  0  0  0
   -6.2028   -2.3308    0.9930 H   0  0  0  0  0  0  0  0  0  0  0  0
   -6.2623   -3.8642    0.1314 H   0  0  0  0  0  0  0  0  0  0  0  0
   -6.1654   -2.3903   -0.8253 H   0  0  0  0  0  0  0  0  0  0  0  0
    6.3119   -1.7572    2.2524 H   0  0  0  0  0  0  0  0  0  0  0  0
    6.6697    0.0250    2.1861 H   0  0  0  0  0  0  0  0  0  0  0  0
    7.7951   -1.1539    1.5212 H   0  0  0  0  0  0  0  0  0  0  0  0
  1  9  1  0  0  0  0
  1 10  1  0  0  0  0
  2 12  1  0  0  0  0
  2 23  1  0  0  0  0
  3 14  1  0  0  0  0
  3 24  1  0  0  0  0
  4 16  1  0  0  0  0
  4 25  1  0  0  0  0
  5 17  1  0  0  0  0
  5 26  1  0  0  0  0
  6 13  2  0  0  0  0
  7 22  1  0  0  0  0
  7 27  1  0  0  0  0
  8 10  2  0  0  0  0
  8 13  1  0  0  0  0
  8 14  1  0  0  0  0
  9 11  1  0  0  0  0
  9 12  2  0  0  0  0
 10 15  1  0  0  0  0
 11 16  2  0  0  0  0
 11 19  1  0  0  0  0
 12 13  1  0  0  0  0
 14 18  2  0  0  0  0
 15 17  2  0  0  0  0
 15 28  1  0  0  0  0
 16 20  1  0  0  0  0
 17 18  1  0  0  0  0
 18 29  1  0  0  0  0
 19 21  2  0  0  0  0
 19 30  1  0  0  0  0
 20 22  2  0  0  0  0
 20 31  1  0  0  0  0
 21 22  1  0  0  0  0
 21 32  1  0  0  0  0
 23 33  1  0  0  0  0
 23 34  1  0  0  0  0
 23 35  1  0  0  0  0
 24 36  1  0  0  0  0
 24 37  1  0  0  0  0
 24 38  1  0  0  0  0
 25 39  1  0  0  0  0
 25 40  1  0  0  0  0
 25 41  1  0  0  0  0
 26 42  1  0  0  0  0
 26 43  1  0  0  0  0
 26 44  1  0  0  0  0
 27 45  1  0  0  0  0
 27 46  1  0  0  0  0
 27 47  1  0  0  0  0
M  END
> <PUBCHEM_COMPOUND_CID>
631105

> <PUBCHEM_CONFORMER_RMSD>
0.8

> <PUBCHEM_CONFORMER_DIVERSEORDER>
1
12
7
2
11
4
10
5
9
8
3
6

> <PUBCHEM_MMFF94_PARTIAL_CHARGES>
32
1 -0.16
10 0.08
11 0.03
12 0.09
13 0.47
14 0.08
15 -0.15
16 0.08
17 0.08
18 -0.15
19 -0.15
2 -0.36
20 -0.15
21 -0.15
22 0.08
23 0.28
24 0.28
25 0.28
26 0.28
27 0.28
28 0.15
29 0.15
3 -0.36
30 0.15
31 0.15
32 0.15
4 -0.36
5 -0.36
6 -0.57
7 -0.36
8 0.09
9 0.05

> <PUBCHEM_EFFECTIVE_ROTOR_COUNT>
6

> <PUBCHEM_PHARMACOPHORE_FEATURES>
10
1 1 acceptor
1 2 acceptor
1 3 acceptor
1 4 acceptor
1 5 acceptor
1 6 acceptor
1 7 acceptor
6 1 8 9 10 12 13 rings
6 11 16 19 20 21 22 rings
6 8 10 14 15 17 18 rings

> <PUBCHEM_HEAVY_ATOM_COUNT>
27

> <PUBCHEM_ATOM_DEF_STEREO_COUNT>
0

> <PUBCHEM_ATOM_UDEF_STEREO_COUNT>
0

> <PUBCHEM_BOND_DEF_STEREO_COUNT>
0

> <PUBCHEM_BOND_UDEF_STEREO_COUNT>
0

> <PUBCHEM_ISOTOPIC_ATOM_COUNT>
0

> <PUBCHEM_COMPONENT_COUNT>
1

> <PUBCHEM_CACTVS_TAUTO_COUNT>
1

> <PUBCHEM_CONFORMER_ID>
0009A14100000001

> <PUBCHEM_MMFF94_ENERGY>
128.6522

> <PUBCHEM_FEATURE_SELFOVERLAP>
50.796

> <PUBCHEM_SHAPE_FINGERPRINT>
10050765 1 18264768930057811585
10319926 262 18270662200681380546
10411042 1 18337669849571902363
11963148 33 17401203872712592551
12166972 35 17603583071001704374
12236239 1 17676207940552329258
12363563 72 18337679727463946083
12616971 3 17530974557398113876
12633257 1 18409172082230761141
13140716 1 18411983589740768569
13540713 5 18264785414131763561
13583140 156 17981009009591925490
13726171 33 18051729721138116228
13782708 43 17774729654379883414
14178342 30 18343028757196607779
14294032 229 17896308118514742413
17492 89 18119809368406659355
17980427 23 18411417319666857996
200 152 16660646215890309360
20028762 73 18128254682902755159
20600515 1 18340494374099395476
20626108 58 18335983159404980980
21033648 29 17418080014556360010
21267235 1 18335986454003762283
22182313 1 17845949450210584847
23366157 5 17897733299372770836
23402539 116 18410005516492173686
23557571 272 18272661133620409615
23559900 14 18128270990771375686
23622692 118 18338231678306497289
25147074 1 18263659501192124613
3004659 81 17822002155218248363
312423 11 18189909784581211049
335352 9 18408881850696175999
350125 39 18338241565590439569
4340502 62 15698007382823320078
4409770 3 17752750356188820997
465052 167 18267590289236300231
5104073 3 18342177803489172088
7471813 234 17458347429559809476
7970288 3 18335697290703919138
8863177 126 17535480545582144715

> <PUBCHEM_SHAPE_MULTIPOLES>
514.56
12.54
3.1
1.51
6.35
1.36
-0.8
-7.64
4.81
-4.82
-0.26
2.13
-0.3
-0.66

> <PUBCHEM_SHAPE_SELFOVERLAP>
1119.712

> <PUBCHEM_SHAPE_VOLUME>
281.3

> <PUBCHEM_COORDINATE_TYPE>
2
5
10

$$$$