44451645
  -OEChem-03242010103D

 58 61  0     1  0  0  0  0  0999 V2000
    7.5177   -2.3980    0.2842 O   0  0  0  0  0  0  0  0  0  0  0  0
    8.8674    0.0071   -0.0482 O   0  0  0  0  0  0  0  0  0  0  0  0
   -6.0252    1.1905    1.3498 O   0  0  0  0  0  0  0  0  0  0  0  0
    2.5610    1.1805    0.0130 N   0  0  2  0  0  0  0  0  0  0  0  0
   -5.1199   -0.4049   -0.1211 N   0  0  0  0  0  0  0  0  0  0  0  0
   -9.8140    0.6881   -0.2904 N   0  0  0  0  0  0  0  0  0  0  0  0
    3.1574    2.1796   -0.8823 C   0  0  0  0  0  0  0  0  0  0  0  0
    3.1964   -0.1328   -0.1946 C   0  0  0  0  0  0  0  0  0  0  0  0
    4.6230    2.4116   -0.5010 C   0  0  0  0  0  0  0  0  0  0  0  0
    4.7058   -0.0845   -0.1267 C   0  0  0  0  0  0  0  0  0  0  0  0
    5.3903    1.1279   -0.3186 C   0  0  0  0  0  0  0  0  0  0  0  0
    1.1175    1.0871   -0.2020 C   0  0  0  0  0  0  0  0  0  0  0  0
    0.4896    0.0555    0.7358 C   0  0  0  0  0  0  0  0  0  0  0  0
    5.4347   -1.2661    0.0641 C   0  0  0  0  0  0  0  0  0  0  0  0
    6.7906    1.1471   -0.2796 C   0  0  0  0  0  0  0  0  0  0  0  0
    6.8290   -1.2384    0.0916 C   0  0  0  0  0  0  0  0  0  0  0  0
    7.5060   -0.0328   -0.0778 C   0  0  0  0  0  0  0  0  0  0  0  0
   -0.9962   -0.0668    0.5092 C   0  0  0  0  0  0  0  0  0  0  0  0
   -1.8797    0.7421    1.2240 C   0  0  0  0  0  0  0  0  0  0  0  0
   -1.4871   -0.9883   -0.4156 C   0  0  0  0  0  0  0  0  0  0  0  0
   -3.2540    0.6294    1.0137 C   0  0  0  0  0  0  0  0  0  0  0  0
   -2.8615   -1.1012   -0.6257 C   0  0  0  0  0  0  0  0  0  0  0  0
   -3.7450   -0.2923    0.0890 C   0  0  0  0  0  0  0  0  0  0  0  0
    6.7491   -3.5882    0.4492 C   0  0  0  0  0  0  0  0  0  0  0  0
    9.4823    1.2812   -0.2298 C   0  0  0  0  0  0  0  0  0  0  0  0
   -6.1490    0.3166    0.4984 C   0  0  0  0  0  0  0  0  0  0  0  0
   -7.5237   -0.0126    0.0388 C   0  0  0  0  0  0  0  0  0  0  0  0
   -7.8263   -1.2686   -0.4752 C   0  0  0  0  0  0  0  0  0  0  0  0
   -8.5440    0.9223    0.1093 C   0  0  0  0  0  0  0  0  0  0  0  0
   -9.1216   -1.5475   -0.8970 C   0  0  0  0  0  0  0  0  0  0  0  0
  -10.0704   -0.5439   -0.7845 C   0  0  0  0  0  0  0  0  0  0  0  0
    2.6292    3.1375   -0.7998 H   0  0  0  0  0  0  0  0  0  0  0  0
    3.0843    1.8578   -1.9301 H   0  0  0  0  0  0  0  0  0  0  0  0
    2.9101   -0.5664   -1.1618 H   0  0  0  0  0  0  0  0  0  0  0  0
    2.8972   -0.8175    0.6052 H   0  0  0  0  0  0  0  0  0  0  0  0
    4.6712    2.9737    0.4404 H   0  0  0  0  0  0  0  0  0  0  0  0
    5.0967    3.0213   -1.2796 H   0  0  0  0  0  0  0  0  0  0  0  0
    0.6572    2.0652   -0.0105 H   0  0  0  0  0  0  0  0  0  0  0  0
    0.8934    0.8319   -1.2468 H   0  0  0  0  0  0  0  0  0  0  0  0
    0.6819    0.3216    1.7835 H   0  0  0  0  0  0  0  0  0  0  0  0
    0.9008   -0.9496    0.5967 H   0  0  0  0  0  0  0  0  0  0  0  0
    4.8543   -2.1754    0.1828 H   0  0  0  0  0  0  0  0  0  0  0  0
    7.2614    2.1157   -0.4125 H   0  0  0  0  0  0  0  0  0  0  0  0
   -1.5076    1.4647    1.9456 H   0  0  0  0  0  0  0  0  0  0  0  0
   -0.8090   -1.6224   -0.9808 H   0  0  0  0  0  0  0  0  0  0  0  0
   -3.8719    1.2905    1.6047 H   0  0  0  0  0  0  0  0  0  0  0  0
   -3.2296   -1.8237   -1.3499 H   0  0  0  0  0  0  0  0  0  0  0  0
    6.1261   -3.5455    1.3491 H   0  0  0  0  0  0  0  0  0  0  0  0
    7.4573   -4.4110    0.5928 H   0  0  0  0  0  0  0  0  0  0  0  0
    6.1694   -3.8226   -0.4502 H   0  0  0  0  0  0  0  0  0  0  0  0
   10.5651    1.1260   -0.1786 H   0  0  0  0  0  0  0  0  0  0  0  0
    9.2229    1.9738    0.5782 H   0  0  0  0  0  0  0  0  0  0  0  0
    9.2682    1.6957   -1.2208 H   0  0  0  0  0  0  0  0  0  0  0  0
   -5.3723   -1.0741   -0.8428 H   0  0  0  0  0  0  0  0  0  0  0  0
   -7.0938   -2.0677   -0.5332 H   0  0  0  0  0  0  0  0  0  0  0  0
   -8.3759    1.9230    0.4955 H   0  0  0  0  0  0  0  0  0  0  0  0
   -9.3828   -2.5219   -1.2937 H   0  0  0  0  0  0  0  0  0  0  0  0
  -11.0958   -0.7115   -1.0975 H   0  0  0  0  0  0  0  0  0  0  0  0
  1 16  1  0  0  0  0
  1 24  1  0  0  0  0
  2 17  1  0  0  0  0
  2 25  1  0  0  0  0
  3 26  2  0  0  0  0
  4  7  1  0  0  0  0
  4  8  1  0  0  0  0
  4 12  1  0  0  0  0
  5 23  1  0  0  0  0
  5 26  1  0  0  0  0
  5 54  1  0  0  0  0
  6 29  1  0  0  0  0
  6 31  2  0  0  0  0
  7  9  1  0  0  0  0
  7 32  1  0  0  0  0
  7 33  1  0  0  0  0
  8 10  1  0  0  0  0
  8 34  1  0  0  0  0
  8 35  1  0  0  0  0
  9 11  1  0  0  0  0
  9 36  1  0  0  0  0
  9 37  1  0  0  0  0
 10 11  1  0  0  0  0
 10 14  2  0  0  0  0
 11 15  2  0  0  0  0
 12 13  1  0  0  0  0
 12 38  1  0  0  0  0
 12 39  1  0  0  0  0
 13 18  1  0  0  0  0
 13 40  1  0  0  0  0
 13 41  1  0  0  0  0
 14 16  1  0  0  0  0
 14 42  1  0  0  0  0
 15 17  1  0  0  0  0
 15 43  1  0  0  0  0
 16 17  2  0  0  0  0
 18 19  2  0  0  0  0
 18 20  1  0  0  0  0
 19 21  1  0  0  0  0
 19 44  1  0  0  0  0
 20 22  2  0  0  0  0
 20 45  1  0  0  0  0
 21 23  2  0  0  0  0
 21 46  1  0  0  0  0
 22 23  1  0  0  0  0
 22 47  1  0  0  0  0
 24 48  1  0  0  0  0
 24 49  1  0  0  0  0
 24 50  1  0  0  0  0
 25 51  1  0  0  0  0
 25 52  1  0  0  0  0
 25 53  1  0  0  0  0
 26 27  1  0  0  0  0
 27 28  1  0  0  0  0
 27 29  2  0  0  0  0
 28 30  2  0  0  0  0
 28 55  1  0  0  0  0
 29 56  1  0  0  0  0
 30 31  1  0  0  0  0
 30 57  1  0  0  0  0
 31 58  1  0  0  0  0
M  END
> <PUBCHEM_COMPOUND_CID>
44451645

> <PUBCHEM_CONFORMER_RMSD>
1

> <PUBCHEM_CONFORMER_DIVERSEORDER>
6
45
63
78
60
21
44
10
31
76
74
59
18
43
24
75
16
67
47
19
37
50
54
77
40
32
71
58
62
13
1
49
42
66
36
20
48
64
3
70
73
30
8
2
61
53
39
4
68
51
33
22
57
11
65
7
52
38
9
41
5
46
17
28
26
55
15
69
14
23
12
34
72
35
25
56
27
29

> <PUBCHEM_MMFF94_PARTIAL_CHARGES>
42
1 -0.36
10 -0.14
11 -0.14
12 0.27
13 0.14
14 -0.15
15 -0.15
16 0.08
17 0.08
18 -0.14
19 -0.15
2 -0.36
20 -0.15
21 -0.15
22 -0.15
23 0.12
24 0.28
25 0.28
26 0.54
27 0.09
28 -0.15
29 0.16
3 -0.57
30 -0.15
31 0.16
4 -0.81
42 0.15
43 0.15
44 0.15
45 0.15
46 0.15
47 0.15
5 -0.55
54 0.37
55 0.15
56 0.15
57 0.15
58 0.15
6 -0.62
7 0.27
8 0.41
9 0.14

> <PUBCHEM_EFFECTIVE_ROTOR_COUNT>
8.8

> <PUBCHEM_PHARMACOPHORE_FEATURES>
10
1 1 acceptor
1 2 acceptor
1 3 acceptor
1 4 cation
1 5 donor
1 6 acceptor
6 10 11 14 15 16 17 rings
6 18 19 20 21 22 23 rings
6 4 7 8 9 10 11 rings
6 6 27 28 29 30 31 rings

> <PUBCHEM_HEAVY_ATOM_COUNT>
31

> <PUBCHEM_ATOM_DEF_STEREO_COUNT>
0

> <PUBCHEM_ATOM_UDEF_STEREO_COUNT>
0

> <PUBCHEM_BOND_DEF_STEREO_COUNT>
0

> <PUBCHEM_BOND_UDEF_STEREO_COUNT>
0

> <PUBCHEM_ISOTOPIC_ATOM_COUNT>
0

> <PUBCHEM_COMPONENT_COUNT>
1

> <PUBCHEM_CACTVS_TAUTO_COUNT>
2

> <PUBCHEM_CONFORMER_ID>
02A6473D00000006

> <PUBCHEM_MMFF94_ENERGY>
109.9056

> <PUBCHEM_FEATURE_SELFOVERLAP>
50.774

> <PUBCHEM_SHAPE_FINGERPRINT>
10162869 55 18411981386263939012
10299344 5 18343021094932662643
10580692 12 18335138687203893469
106641 1 10952052256055201361
11135609 127 18264210387020716548
11638347 137 14405192750793483580
11719270 70 17775570827360272246
12089408 11 18131072610443377001
12144603 126 18273214227346372004
12539765 74 11530480012822247473
12592606 108 18412262830827874867
12664476 115 17603299375622165780
14118638 360 15697731315494803695
14216079 64 18260266326725067118
14251764 18 18343587343046446905
14251764 46 18411699897948502925
14428016 248 8934997092494764611
15183329 4 18201166511316824349
15198563 99 16733259050315396829
15247644 1 16056884641129098943
15301273 46 16298385769079675053
15347591 1 18046632475562378205
15461852 350 17418380190031641009
15510794 2 17676774248985696635
16120349 18 18409731803197230096
1754911 235 18040992947970495639
18335252 98 11095891462180199785
19301679 30 17916309338492374542
19841028 212 18409727327461733834
21315763 28 18411700976539429041
22224240 67 12319736964384295157
232437 2 18202566185007225606
249057 25 18270978898506277601
249057 3 18260268585360978055
2835820 82 18191022314329773466
28498 318 18260829284830560141
335352 9 18411140259462424204
4073 2 18115594893451144730
5283156 175 18273215296049410361
5758199 1 10159697993475953453
58902169 19 18337389461322138605
59520757 100 15194992912544900772
59682541 35 12895351110319985877
6081469 158 17821445750863291957
6691757 9 16988572333560284271
67123 10 18344145903690997729
9663363 56 17385721414154755268
99344 41 18343303652426281263

> <PUBCHEM_SHAPE_MULTIPOLES>
605.41
37.37
2.2
0.9
35.06
1.25
0.1
6.25
-5.32
-5.25
-0.07
0.89
-0.1
-2.28

> <PUBCHEM_SHAPE_SELFOVERLAP>
1305.968

> <PUBCHEM_SHAPE_VOLUME>
331.4

> <PUBCHEM_COORDINATE_TYPE>
2
5
10

$$$$