44565481
  -OEChem-03242010103D

 63 66  0     1  0  0  0  0  0999 V2000
    8.0047    2.6265    0.3963 O   0  0  0  0  0  0  0  0  0  0  0  0
    9.5124    0.4164   -0.3512 O   0  0  0  0  0  0  0  0  0  0  0  0
   -4.9948    1.2241   -0.0628 O   0  0  0  0  0  0  0  0  0  0  0  0
    3.3208   -1.2569   -0.2536 N   0  0  1  0  0  0  0  0  0  0  0  0
   -4.4889   -1.0072    0.4422 N   0  0  0  0  0  0  0  0  0  0  0  0
   -6.6879   -0.3789    0.1176 N   0  0  0  0  0  0  0  0  0  0  0  0
   -9.2629   -1.6027    0.1471 N   0  0  0  0  0  0  0  0  0  0  0  0
    3.9469   -2.0578   -1.3128 C   0  0  0  0  0  0  0  0  0  0  0  0
    3.8462    0.1197   -0.2786 C   0  0  0  0  0  0  0  0  0  0  0  0
    5.4420   -2.2258   -1.0235 C   0  0  0  0  0  0  0  0  0  0  0  0
    5.3565    0.1837   -0.2718 C   0  0  0  0  0  0  0  0  0  0  0  0
    6.1195   -0.9268   -0.6719 C   0  0  0  0  0  0  0  0  0  0  0  0
    1.8657   -1.2492   -0.4000 C   0  0  0  0  0  0  0  0  0  0  0  0
    1.1821   -0.9662    0.9381 C   0  0  0  0  0  0  0  0  0  0  0  0
    6.0036    1.3778    0.0739 C   0  0  0  0  0  0  0  0  0  0  0  0
    7.5175   -0.8389   -0.6846 C   0  0  0  0  0  0  0  0  0  0  0  0
    7.3957    1.4583    0.0491 C   0  0  0  0  0  0  0  0  0  0  0  0
    8.1519    0.3505   -0.3274 C   0  0  0  0  0  0  0  0  0  0  0  0
   -0.3199   -0.9773    0.8056 C   0  0  0  0  0  0  0  0  0  0  0  0
   -1.0020    0.2010    0.5019 C   0  0  0  0  0  0  0  0  0  0  0  0
   -1.0275   -2.1654    0.9879 C   0  0  0  0  0  0  0  0  0  0  0  0
   -2.3915    0.1912    0.3808 C   0  0  0  0  0  0  0  0  0  0  0  0
   -2.4171   -2.1754    0.8669 C   0  0  0  0  0  0  0  0  0  0  0  0
   -3.0990   -0.9971    0.5633 C   0  0  0  0  0  0  0  0  0  0  0  0
    7.1584    3.7124    0.7691 C   0  0  0  0  0  0  0  0  0  0  0  0
   10.1990    0.0634    0.8482 C   0  0  0  0  0  0  0  0  0  0  0  0
   -5.3579    0.0704    0.1427 C   0  0  0  0  0  0  0  0  0  0  0  0
   -7.8570    0.3747   -0.1416 C   0  0  0  0  0  0  0  0  0  0  0  0
   -9.1166   -0.2244   -0.1269 C   0  0  0  0  0  0  0  0  0  0  0  0
   -7.7361    1.7374   -0.4134 C   0  0  0  0  0  0  0  0  0  0  0  0
  -10.2552    0.5393   -0.3843 C   0  0  0  0  0  0  0  0  0  0  0  0
   -8.8746    2.5012   -0.6705 C   0  0  0  0  0  0  0  0  0  0  0  0
  -10.1341    1.9022   -0.6559 C   0  0  0  0  0  0  0  0  0  0  0  0
    3.7982   -1.5891   -2.2950 H   0  0  0  0  0  0  0  0  0  0  0  0
    3.5028   -3.0598   -1.3603 H   0  0  0  0  0  0  0  0  0  0  0  0
    3.4968    0.6570   -1.1706 H   0  0  0  0  0  0  0  0  0  0  0  0
    3.4845    0.6583    0.6047 H   0  0  0  0  0  0  0  0  0  0  0  0
    5.5762   -2.9180   -0.1824 H   0  0  0  0  0  0  0  0  0  0  0  0
    5.9237   -2.6701   -1.9027 H   0  0  0  0  0  0  0  0  0  0  0  0
    1.5370   -0.5447   -1.1759 H   0  0  0  0  0  0  0  0  0  0  0  0
    1.5212   -2.2385   -0.7322 H   0  0  0  0  0  0  0  0  0  0  0  0
    1.4889    0.0048    1.3451 H   0  0  0  0  0  0  0  0  0  0  0  0
    1.4867   -1.7111    1.6854 H   0  0  0  0  0  0  0  0  0  0  0  0
    5.3631    2.2084    0.3520 H   0  0  0  0  0  0  0  0  0  0  0  0
    8.1126   -1.7019   -0.9745 H   0  0  0  0  0  0  0  0  0  0  0  0
   -0.4602    1.1319    0.3559 H   0  0  0  0  0  0  0  0  0  0  0  0
   -0.5071   -3.0900    1.2232 H   0  0  0  0  0  0  0  0  0  0  0  0
   -2.8447    1.1430    0.1437 H   0  0  0  0  0  0  0  0  0  0  0  0
   -2.9556   -3.1086    1.0113 H   0  0  0  0  0  0  0  0  0  0  0  0
    6.5225    4.0331   -0.0631 H   0  0  0  0  0  0  0  0  0  0  0  0
    6.5821    3.4840    1.6721 H   0  0  0  0  0  0  0  0  0  0  0  0
    7.8095    4.5580    1.0144 H   0  0  0  0  0  0  0  0  0  0  0  0
    9.9081    0.7270    1.6686 H   0  0  0  0  0  0  0  0  0  0  0  0
    9.9929   -0.9779    1.1155 H   0  0  0  0  0  0  0  0  0  0  0  0
   11.2727    0.1736    0.6733 H   0  0  0  0  0  0  0  0  0  0  0  0
   -4.9330   -1.9102    0.5891 H   0  0  0  0  0  0  0  0  0  0  0  0
   -6.8246   -1.3653    0.3098 H   0  0  0  0  0  0  0  0  0  0  0  0
   -6.8044    2.2820   -0.4456 H   0  0  0  0  0  0  0  0  0  0  0  0
  -11.2430    0.0855   -0.3760 H   0  0  0  0  0  0  0  0  0  0  0  0
   -8.7820    3.5626   -0.8823 H   0  0  0  0  0  0  0  0  0  0  0  0
  -11.0205    2.4969   -0.8561 H   0  0  0  0  0  0  0  0  0  0  0  0
   -8.4668   -2.1927    0.3362 H   0  0  0  0  0  0  0  0  0  0  0  0
  -10.1884   -2.0120    0.1503 H   0  0  0  0  0  0  0  0  0  0  0  0
  1 17  1  0  0  0  0
  1 25  1  0  0  0  0
  2 18  1  0  0  0  0
  2 26  1  0  0  0  0
  3 27  2  0  0  0  0
  4  8  1  0  0  0  0
  4  9  1  0  0  0  0
  4 13  1  0  0  0  0
  5 24  1  0  0  0  0
  5 27  1  0  0  0  0
  5 56  1  0  0  0  0
  6 27  1  0  0  0  0
  6 28  1  0  0  0  0
  6 57  1  0  0  0  0
  7 29  1  0  0  0  0
  7 62  1  0  0  0  0
  7 63  1  0  0  0  0
  8 10  1  0  0  0  0
  8 34  1  0  0  0  0
  8 35  1  0  0  0  0
  9 11  1  0  0  0  0
  9 36  1  0  0  0  0
  9 37  1  0  0  0  0
 10 12  1  0  0  0  0
 10 38  1  0  0  0  0
 10 39  1  0  0  0  0
 11 12  1  0  0  0  0
 11 15  2  0  0  0  0
 12 16  2  0  0  0  0
 13 14  1  0  0  0  0
 13 40  1  0  0  0  0
 13 41  1  0  0  0  0
 14 19  1  0  0  0  0
 14 42  1  0  0  0  0
 14 43  1  0  0  0  0
 15 17  1  0  0  0  0
 15 44  1  0  0  0  0
 16 18  1  0  0  0  0
 16 45  1  0  0  0  0
 17 18  2  0  0  0  0
 19 20  2  0  0  0  0
 19 21  1  0  0  0  0
 20 22  1  0  0  0  0
 20 46  1  0  0  0  0
 21 23  2  0  0  0  0
 21 47  1  0  0  0  0
 22 24  2  0  0  0  0
 22 48  1  0  0  0  0
 23 24  1  0  0  0  0
 23 49  1  0  0  0  0
 25 50  1  0  0  0  0
 25 51  1  0  0  0  0
 25 52  1  0  0  0  0
 26 53  1  0  0  0  0
 26 54  1  0  0  0  0
 26 55  1  0  0  0  0
 28 29  1  0  0  0  0
 28 30  2  0  0  0  0
 29 31  2  0  0  0  0
 30 32  1  0  0  0  0
 30 58  1  0  0  0  0
 31 33  1  0  0  0  0
 31 59  1  0  0  0  0
 32 33  2  0  0  0  0
 32 60  1  0  0  0  0
 33 61  1  0  0  0  0
M  END
> <PUBCHEM_COMPOUND_CID>
44565481

> <PUBCHEM_CONFORMER_RMSD>
1

> <PUBCHEM_CONFORMER_DIVERSEORDER>
5
98
113
226
163
159
37
42
100
230
19
143
97
88
103
167
29
68
158
243
118
233
41
137
212
74
27
105
194
201
51
157
166
164
188
57
58
187
134
238
126
236
106
176
75
130
141
34
91
121
174
133
235
35
190
60
239
1
55
245
120
135
82
3
173
220
108
203
151
132
217
131
251
185
209
186
93
101
162
83
23
148
138
62
150
81
228
227
28
123
69
36
70
225
109
224
177
184
197
61
152
179
64
182
107
6
128
129
146
2
112
222
33
192
66
140
4
59
205
48
153
87
95
149
114
102
53
183
250
241
156
119
232
169
139
219
71
44
96
67
200
10
79
99
195
111
63
52
12
72
171
85
242
208
145
127
196
223
30
180
86
125
247
221
9
89
54
116
240
252
191
115
92
136
94
90
122
56
248
24
32
13
170
249
218
76
172
7
246
168
213
104
38
50
199
215
198
43
20
211
40
231
189
49
117
21
80
165
214
175
147
110
181
142
193
216
154
73
26
237
17
244
77
144
78
124
160
16
14
234
11
8
204
210
155
202
178
229
207
206
25
39
65
18
46
31
161
22
15
47
45
84

> <PUBCHEM_MMFF94_PARTIAL_CHARGES>
47
1 -0.36
10 0.14
11 -0.14
12 -0.14
13 0.27
14 0.14
15 -0.15
16 -0.15
17 0.08
18 0.08
19 -0.14
2 -0.36
20 -0.15
21 -0.15
22 -0.15
23 -0.15
24 0.12
25 0.28
26 0.28
27 0.69
28 0.12
29 0.1
3 -0.57
30 -0.15
31 -0.15
32 -0.15
33 -0.15
4 -0.81
44 0.15
45 0.15
46 0.15
47 0.15
48 0.15
49 0.15
5 -0.55
56 0.37
57 0.37
58 0.15
59 0.15
6 -0.55
60 0.15
61 0.15
62 0.4
63 0.4
7 -0.9
8 0.27
9 0.41

> <PUBCHEM_EFFECTIVE_ROTOR_COUNT>
9.8

> <PUBCHEM_PHARMACOPHORE_FEATURES>
12
1 1 acceptor
1 2 acceptor
1 3 acceptor
1 4 cation
1 5 donor
1 6 donor
1 7 cation
1 7 donor
6 11 12 15 16 17 18 rings
6 19 20 21 22 23 24 rings
6 28 29 30 31 32 33 rings
6 4 8 9 10 11 12 rings

> <PUBCHEM_HEAVY_ATOM_COUNT>
33

> <PUBCHEM_ATOM_DEF_STEREO_COUNT>
0

> <PUBCHEM_ATOM_UDEF_STEREO_COUNT>
0

> <PUBCHEM_BOND_DEF_STEREO_COUNT>
0

> <PUBCHEM_BOND_UDEF_STEREO_COUNT>
0

> <PUBCHEM_ISOTOPIC_ATOM_COUNT>
0

> <PUBCHEM_COMPONENT_COUNT>
1

> <PUBCHEM_CACTVS_TAUTO_COUNT>
3

> <PUBCHEM_CONFORMER_ID>
02A803E900000005

> <PUBCHEM_MMFF94_ENERGY>
128.193

> <PUBCHEM_FEATURE_SELFOVERLAP>
60.973

> <PUBCHEM_SHAPE_FINGERPRINT>
10076449 9 15697998522864301731
10533779 1 16414338166108720112
10533779 47 10665227025841590909
10835480 77 18342181089756006626
11061554 47 17968093101628829237
11135609 127 18272650199583350240
11211813 74 18412260631741354945
11409948 35 17459182999006440130
11409948 41 16701191777223584022
11443803 9 17821728325731828619
11456790 92 13623533450459889295
11607047 141 17749379327612248706
11607047 74 11455300957567486906
11638347 137 8286198357976943101
11693224 71 18333729113213312482
12013929 2 18335988598004864958
12013929 94 18271806866023642287
12098696 120 18113337497205505385
12539745 222 7925638812996028127
12559415 141 9871466569057634573
12559415 43 17967523567923358837
12664476 115 18260545624132721252
131240 100 18410856603702708491
13947947 74 18343023285112718219
14040221 304 16989127565805446268
14142895 15 18272651276717704375
14251764 46 18187083953218309959
14344974 52 18412261762240685815
150020 25 18413394228519716223
15247644 1 14764347123983430956
15510794 2 18335144202174283171
155225 1 18114181913635237341
15840311 113 18413111663058903164
1754911 235 18412823582390692901
17686467 74 17967534585036003397
1818759 1 12247674981374723557
19301679 30 12974147564075201722
20105231 36 9151180857330437328
20721686 124 18341335509934509302
20812841 46 17967527949280130098
21267235 1 10519984854983976994
21362267 2 18270667762037443504
21362267 313 18041835087044557746
21585481 151 10519978276038162869
21792934 111 18343860040476575152
21867018 265 17846492669680282559
24771293 8 17895195472828878469
249057 3 16773508941392957847
306946 40 18187078451871768725
395649 100 18187646947351279235
44280117 145 18190465051086923607
45270241 37 18343588412757503150
4760202 170 18202278126426613752
4874694 18 18201720648398742406
5028188 123 18060698391580297775
54039377 194 11815892362816179035
5470011 282 17917994958036390463
5758199 1 17458628879225671387
6201320 215 12974149772100577191
6691757 9 14996291327948125401
67123 10 18413389835179382319
9962374 69 10519693484718698914

> <PUBCHEM_SHAPE_MULTIPOLES>
641.59
42.11
2.72
0.95
35.84
1.61
0.01
23.48
5.89
-2.31
-0.18
-0.61
-0.24
3.3

> <PUBCHEM_SHAPE_SELFOVERLAP>
1377.338

> <PUBCHEM_SHAPE_VOLUME>
353.7

> <PUBCHEM_COORDINATE_TYPE>
2
5
10

$$$$