25156131
  -OEChem-03242010103D

 70 73  0     0  0  0  0  0  0999 V2000
   -3.2583    2.0856   -0.2181 O   0  0  0  0  0  0  0  0  0  0  0  0
    4.0843   -0.8153   -1.3980 O   0  0  0  0  0  0  0  0  0  0  0  0
    0.8815   -2.9830    1.1989 O   0  0  0  0  0  0  0  0  0  0  0  0
    0.8648    2.4522    0.6059 N   0  0  0  0  0  0  0  0  0  0  0  0
    3.5064    1.5046    0.0738 N   0  0  0  0  0  0  0  0  0  0  0  0
    1.8145    3.2814   -0.1461 C   0  0  0  0  0  0  0  0  0  0  0  0
    1.0990    1.0331    0.3116 C   0  0  0  0  0  0  0  0  0  0  0  0
    3.2590    2.9413    0.2290 C   0  0  0  0  0  0  0  0  0  0  0  0
    2.5192    0.6183    0.7031 C   0  0  0  0  0  0  0  0  0  0  0  0
   -0.5114    2.8235    0.2789 C   0  0  0  0  0  0  0  0  0  0  0  0
   -1.4665    2.3163    1.3545 C   0  0  0  0  0  0  0  0  0  0  0  0
    4.8183    1.0368   -0.0611 C   0  0  0  0  0  0  0  0  0  0  0  0
   -2.9117    2.6696    1.0300 C   0  0  0  0  0  0  0  0  0  0  0  0
    5.0886   -0.1174   -0.7964 C   0  0  0  0  0  0  0  0  0  0  0  0
    5.8607    1.7365    0.5467 C   0  0  0  0  0  0  0  0  0  0  0  0
    6.4012   -0.5717   -0.9236 C   0  0  0  0  0  0  0  0  0  0  0  0
    7.1733    1.2823    0.4193 C   0  0  0  0  0  0  0  0  0  0  0  0
   -4.5683    1.7186   -0.3868 C   0  0  0  0  0  0  0  0  0  0  0  0
    7.4436    0.1281   -0.3158 C   0  0  0  0  0  0  0  0  0  0  0  0
   -4.9093    0.3914   -0.6470 C   0  0  0  0  0  0  0  0  0  0  0  0
   -3.8557   -0.6616   -0.7464 C   0  0  0  0  0  0  0  0  0  0  0  0
   -3.7601   -1.5713    0.4936 C   0  0  0  0  0  0  0  0  0  0  0  0
   -5.5653    2.6899   -0.2962 C   0  0  0  0  0  0  0  0  0  0  0  0
   -6.2473    0.0356   -0.8169 C   0  0  0  0  0  0  0  0  0  0  0  0
   -2.6662   -2.6061    0.3893 C   0  0  0  0  0  0  0  0  0  0  0  0
    4.4546   -1.9826   -2.1286 C   0  0  0  0  0  0  0  0  0  0  0  0
   -6.9033    2.3341   -0.4661 C   0  0  0  0  0  0  0  0  0  0  0  0
   -7.2443    1.0069   -0.7265 C   0  0  0  0  0  0  0  0  0  0  0  0
   -1.3819   -2.3123    0.8474 C   0  0  0  0  0  0  0  0  0  0  0  0
   -2.9399   -3.8563   -0.1653 C   0  0  0  0  0  0  0  0  0  0  0  0
   -0.3714   -3.2690    0.7512 C   0  0  0  0  0  0  0  0  0  0  0  0
   -1.9294   -4.8130   -0.2617 C   0  0  0  0  0  0  0  0  0  0  0  0
   -0.6452   -4.5193    0.1966 C   0  0  0  0  0  0  0  0  0  0  0  0
    1.8667   -4.0072    1.0706 C   0  0  0  0  0  0  0  0  0  0  0  0
    1.6486    4.3427    0.0755 H   0  0  0  0  0  0  0  0  0  0  0  0
    1.6731    3.1470   -1.2271 H   0  0  0  0  0  0  0  0  0  0  0  0
    0.9392    0.8232   -0.7547 H   0  0  0  0  0  0  0  0  0  0  0  0
    0.4168    0.3920    0.8752 H   0  0  0  0  0  0  0  0  0  0  0  0
    3.9237    3.5229   -0.4220 H   0  0  0  0  0  0  0  0  0  0  0  0
    3.4482    3.2436    1.2671 H   0  0  0  0  0  0  0  0  0  0  0  0
    2.6349    0.6802    1.7936 H   0  0  0  0  0  0  0  0  0  0  0  0
    2.6530   -0.4349    0.4394 H   0  0  0  0  0  0  0  0  0  0  0  0
   -0.6055    3.9173    0.2521 H   0  0  0  0  0  0  0  0  0  0  0  0
   -0.7916    2.4612   -0.7182 H   0  0  0  0  0  0  0  0  0  0  0  0
   -1.4089    1.2270    1.4447 H   0  0  0  0  0  0  0  0  0  0  0  0
   -1.1999    2.7417    2.3295 H   0  0  0  0  0  0  0  0  0  0  0  0
   -3.0330    3.7568    0.9636 H   0  0  0  0  0  0  0  0  0  0  0  0
   -3.5580    2.2955    1.8344 H   0  0  0  0  0  0  0  0  0  0  0  0
    5.6884    2.6302    1.1396 H   0  0  0  0  0  0  0  0  0  0  0  0
    6.6882   -1.4588   -1.4775 H   0  0  0  0  0  0  0  0  0  0  0  0
    7.9848    1.8248    0.8954 H   0  0  0  0  0  0  0  0  0  0  0  0
    8.4661   -0.2252   -0.4134 H   0  0  0  0  0  0  0  0  0  0  0  0
   -4.0598   -1.2774   -1.6336 H   0  0  0  0  0  0  0  0  0  0  0  0
   -2.8739   -0.2139   -0.9472 H   0  0  0  0  0  0  0  0  0  0  0  0
   -4.7191   -2.0770    0.6673 H   0  0  0  0  0  0  0  0  0  0  0  0
   -3.5917   -0.9583    1.3894 H   0  0  0  0  0  0  0  0  0  0  0  0
   -5.3144    3.7292   -0.1025 H   0  0  0  0  0  0  0  0  0  0  0  0
   -6.5265   -0.9948   -1.0210 H   0  0  0  0  0  0  0  0  0  0  0  0
    3.5334   -2.4107   -2.5378 H   0  0  0  0  0  0  0  0  0  0  0  0
    4.8944   -2.7449   -1.4764 H   0  0  0  0  0  0  0  0  0  0  0  0
    5.0973   -1.7393   -2.9816 H   0  0  0  0  0  0  0  0  0  0  0  0
   -7.6794    3.0907   -0.3976 H   0  0  0  0  0  0  0  0  0  0  0  0
   -8.2860    0.7300   -0.8594 H   0  0  0  0  0  0  0  0  0  0  0  0
   -1.1659   -1.3422    1.2854 H   0  0  0  0  0  0  0  0  0  0  0  0
   -3.9361   -4.0959   -0.5275 H   0  0  0  0  0  0  0  0  0  0  0  0
   -2.1435   -5.7861   -0.6942 H   0  0  0  0  0  0  0  0  0  0  0  0
    0.0920   -5.3078    0.0912 H   0  0  0  0  0  0  0  0  0  0  0  0
    2.8023   -3.6072    1.4752 H   0  0  0  0  0  0  0  0  0  0  0  0
    2.0541   -4.2553    0.0203 H   0  0  0  0  0  0  0  0  0  0  0  0
    1.6107   -4.8893    1.6671 H   0  0  0  0  0  0  0  0  0  0  0  0
  1 13  1  0  0  0  0
  1 18  1  0  0  0  0
  2 14  1  0  0  0  0
  2 26  1  0  0  0  0
  3 31  1  0  0  0  0
  3 34  1  0  0  0  0
  4  6  1  0  0  0  0
  4  7  1  0  0  0  0
  4 10  1  0  0  0  0
  5  8  1  0  0  0  0
  5  9  1  0  0  0  0
  5 12  1  0  0  0  0
  6  8  1  0  0  0  0
  6 35  1  0  0  0  0
  6 36  1  0  0  0  0
  7  9  1  0  0  0  0
  7 37  1  0  0  0  0
  7 38  1  0  0  0  0
  8 39  1  0  0  0  0
  8 40  1  0  0  0  0
  9 41  1  0  0  0  0
  9 42  1  0  0  0  0
 10 11  1  0  0  0  0
 10 43  1  0  0  0  0
 10 44  1  0  0  0  0
 11 13  1  0  0  0  0
 11 45  1  0  0  0  0
 11 46  1  0  0  0  0
 12 14  1  0  0  0  0
 12 15  2  0  0  0  0
 13 47  1  0  0  0  0
 13 48  1  0  0  0  0
 14 16  2  0  0  0  0
 15 17  1  0  0  0  0
 15 49  1  0  0  0  0
 16 19  1  0  0  0  0
 16 50  1  0  0  0  0
 17 19  2  0  0  0  0
 17 51  1  0  0  0  0
 18 20  1  0  0  0  0
 18 23  2  0  0  0  0
 19 52  1  0  0  0  0
 20 21  1  0  0  0  0
 20 24  2  0  0  0  0
 21 22  1  0  0  0  0
 21 53  1  0  0  0  0
 21 54  1  0  0  0  0
 22 25  1  0  0  0  0
 22 55  1  0  0  0  0
 22 56  1  0  0  0  0
 23 27  1  0  0  0  0
 23 57  1  0  0  0  0
 24 28  1  0  0  0  0
 24 58  1  0  0  0  0
 25 29  2  0  0  0  0
 25 30  1  0  0  0  0
 26 59  1  0  0  0  0
 26 60  1  0  0  0  0
 26 61  1  0  0  0  0
 27 28  2  0  0  0  0
 27 62  1  0  0  0  0
 28 63  1  0  0  0  0
 29 31  1  0  0  0  0
 29 64  1  0  0  0  0
 30 32  2  0  0  0  0
 30 65  1  0  0  0  0
 31 33  2  0  0  0  0
 32 33  1  0  0  0  0
 32 66  1  0  0  0  0
 33 67  1  0  0  0  0
 34 68  1  0  0  0  0
 34 69  1  0  0  0  0
 34 70  1  0  0  0  0
M  END
> <PUBCHEM_COMPOUND_CID>
25156131

> <PUBCHEM_CONFORMER_RMSD>
1.6

> <PUBCHEM_CONFORMER_DIVERSEORDER>
5
39
60
152
147
52
96
25
40
79
98
159
31
118
103
139
112
158
20
36
143
38
76
84
14
97
24
1
80
127
17
144
61
49
155
89
126
22
131
9
83
117
149
105
71
28
45
18
137
87
85
125
82
110
121
58
150
122
119
59
130
78
55
153
81
102
21
34
109
64
156
29
142
154
16
11
35
128
44
151
99
132
75
19
115
73
46
74
107
106
135
157
91
67
27
90
62
120
92
148
146
2
133
86
13
93
69
77
50
48
100
88
95
140
72
23
134
42
26
63
7
6
111
108
114
94
41
68
56
70
4
15
12
37
101
54
161
32
141
66
129
43
30
53
123
3
145
136
51
104
116
124
10
8
47
65
138
57
113
160
33

> <PUBCHEM_MMFF94_PARTIAL_CHARGES>
45
1 -0.36
10 0.27
12 0.1
13 0.28
14 0.08
15 -0.15
16 -0.15
17 -0.15
18 0.08
19 -0.15
2 -0.36
20 -0.14
21 0.14
22 0.14
23 -0.15
24 -0.15
25 -0.14
26 0.28
27 -0.15
28 -0.15
29 -0.15
3 -0.36
30 -0.15
31 0.08
32 -0.15
33 -0.15
34 0.28
4 -0.81
49 0.15
5 -0.84
50 0.15
51 0.15
52 0.15
57 0.15
58 0.15
6 0.27
62 0.15
63 0.15
64 0.15
65 0.15
66 0.15
67 0.15
7 0.27
8 0.37
9 0.37

> <PUBCHEM_EFFECTIVE_ROTOR_COUNT>
12.2

> <PUBCHEM_PHARMACOPHORE_FEATURES>
9
1 1 acceptor
1 2 acceptor
1 3 acceptor
1 4 cation
1 5 cation
6 12 14 15 16 17 19 rings
6 18 20 23 24 27 28 rings
6 25 29 30 31 32 33 rings
6 4 5 6 7 8 9 rings

> <PUBCHEM_HEAVY_ATOM_COUNT>
34

> <PUBCHEM_ATOM_DEF_STEREO_COUNT>
0

> <PUBCHEM_ATOM_UDEF_STEREO_COUNT>
0

> <PUBCHEM_BOND_DEF_STEREO_COUNT>
0

> <PUBCHEM_BOND_UDEF_STEREO_COUNT>
0

> <PUBCHEM_ISOTOPIC_ATOM_COUNT>
0

> <PUBCHEM_COMPONENT_COUNT>
1

> <PUBCHEM_CACTVS_TAUTO_COUNT>
1

> <PUBCHEM_CONFORMER_ID>
017FDA2300000005

> <PUBCHEM_MMFF94_ENERGY>
124.209

> <PUBCHEM_FEATURE_SELFOVERLAP>
45.675

> <PUBCHEM_SHAPE_FINGERPRINT>
10050765 1 18121215643942576192
10483366 6 18337675205190574018
10864689 126 18338241445009517814
11135609 187 18337106744915587329
11135926 11 18336824187686297469
11200772 48 18334860540752659691
11828532 37 17685217566174728363
12202916 173 18059852852760920764
14028597 1 17917724474941488761
14394314 77 18339083671186250657
14931854 50 18339629084782129069
15183329 4 18408319973524937536
15297060 5 18342739607144897409
15322534 239 18411981360462493335
15351339 4 18338509747131718579
15781502 589 18343022142984863454
15890870 6 18408600353896683399
15927050 60 18411410727166475063
16719943 64 18409444812701348187
17627616 140 18191304875288878139
19311894 1 18268149936544078395
19958102 18 18408880737472030117
21360443 120 18333732386183197763
21796203 349 16970586233909717650
22440779 20 16303771344383689106
22899556 105 18055604405522144815
23559900 14 18270955864227540521
23572383 38 18201445804734654262
23576562 1 17968953018764759604
244849 19 17487604441636997688
249057 3 18334011713819529741
3383291 50 18340204189461485755
354706 109 18200857574719812480
4073 2 18339920532520355088
437795 96 18271813483571194046
5085150 59 18342448240869338938
5265222 85 18262240044344223189
57676310 188 18335421202016117290
70634741 139 18267591397786327264

> <PUBCHEM_SHAPE_MULTIPOLES>
672.13
18.45
6.26
1.17
7.73
7.02
0.2
-11.13
6.14
-3.93
-1.33
0.62
0.39
1.31

> <PUBCHEM_SHAPE_SELFOVERLAP>
1421.239

> <PUBCHEM_SHAPE_VOLUME>
376.6

> <PUBCHEM_COORDINATE_TYPE>
2
5
10

$$$$