25157543
  -OEChem-03242010103D

 62 64  0     0  0  0  0  0  0999 V2000
   -2.5857   -1.8438    0.2134 O   0  0  0  0  0  0  0  0  0  0  0  0
    2.8084    1.9534   -0.9364 O   0  0  0  0  0  0  0  0  0  0  0  0
    2.5860   -2.1112   -0.2747 N   0  0  0  0  0  0  0  0  0  0  0  0
    5.0619   -1.3591    1.0147 N   0  0  0  0  0  0  0  0  0  0  0  0
    2.6322   -1.7882    1.1566 C   0  0  0  0  0  0  0  0  0  0  0  0
    3.8735   -2.6601   -0.7176 C   0  0  0  0  0  0  0  0  0  0  0  0
    3.7742   -0.8118    1.4590 C   0  0  0  0  0  0  0  0  0  0  0  0
    5.0152   -1.6831   -0.4164 C   0  0  0  0  0  0  0  0  0  0  0  0
    1.4979   -3.0439   -0.5615 C   0  0  0  0  0  0  0  0  0  0  0  0
    0.1635   -2.3019   -0.6163 C   0  0  0  0  0  0  0  0  0  0  0  0
   -0.9900   -3.2607   -0.9063 C   0  0  0  0  0  0  0  0  0  0  0  0
    6.1492   -0.4251    1.3003 C   0  0  0  0  0  0  0  0  0  0  0  0
   -2.3203   -2.5258   -1.0050 C   0  0  0  0  0  0  0  0  0  0  0  0
   -3.7642   -1.1481    0.2884 C   0  0  0  0  0  0  0  0  0  0  0  0
   -3.7670    0.2278    0.5175 C   0  0  0  0  0  0  0  0  0  0  0  0
   -2.4858    0.9759    0.6850 C   0  0  0  0  0  0  0  0  0  0  0  0
   -2.0764    1.8017   -0.5497 C   0  0  0  0  0  0  0  0  0  0  0  0
   -4.9702   -1.8317    0.1333 C   0  0  0  0  0  0  0  0  0  0  0  0
   -4.9757    0.9201    0.5918 C   0  0  0  0  0  0  0  0  0  0  0  0
   -0.7616    2.5218   -0.3745 C   0  0  0  0  0  0  0  0  0  0  0  0
   -6.1789   -1.1394    0.2076 C   0  0  0  0  0  0  0  0  0  0  0  0
   -6.1816    0.2365    0.4369 C   0  0  0  0  0  0  0  0  0  0  0  0
    0.4304    1.8968   -0.7404 C   0  0  0  0  0  0  0  0  0  0  0  0
   -0.7388    3.8127    0.1534 C   0  0  0  0  0  0  0  0  0  0  0  0
    1.6453    2.5627   -0.5787 C   0  0  0  0  0  0  0  0  0  0  0  0
    0.4761    4.4787    0.3152 C   0  0  0  0  0  0  0  0  0  0  0  0
    1.6681    3.8537   -0.0508 C   0  0  0  0  0  0  0  0  0  0  0  0
    4.0141    2.6920   -0.7447 C   0  0  0  0  0  0  0  0  0  0  0  0
    2.7598   -2.6971    1.7605 H   0  0  0  0  0  0  0  0  0  0  0  0
    1.7023   -1.3107    1.4823 H   0  0  0  0  0  0  0  0  0  0  0  0
    3.8522   -2.8342   -1.8004 H   0  0  0  0  0  0  0  0  0  0  0  0
    4.0738   -3.6259   -0.2340 H   0  0  0  0  0  0  0  0  0  0  0  0
    3.5718    0.1543    0.9808 H   0  0  0  0  0  0  0  0  0  0  0  0
    3.8010   -0.6387    2.5418 H   0  0  0  0  0  0  0  0  0  0  0  0
    5.9590   -2.1511   -0.7214 H   0  0  0  0  0  0  0  0  0  0  0  0
    4.8912   -0.7735   -1.0199 H   0  0  0  0  0  0  0  0  0  0  0  0
    1.6515   -3.5046   -1.5464 H   0  0  0  0  0  0  0  0  0  0  0  0
    1.4651   -3.8657    0.1654 H   0  0  0  0  0  0  0  0  0  0  0  0
    0.2024   -1.5352   -1.4000 H   0  0  0  0  0  0  0  0  0  0  0  0
   -0.0334   -1.7860    0.3290 H   0  0  0  0  0  0  0  0  0  0  0  0
   -1.0464   -4.0004   -0.0982 H   0  0  0  0  0  0  0  0  0  0  0  0
   -0.8053   -3.8025   -1.8410 H   0  0  0  0  0  0  0  0  0  0  0  0
    6.0259    0.5291    0.7757 H   0  0  0  0  0  0  0  0  0  0  0  0
    7.1131   -0.8566    1.0084 H   0  0  0  0  0  0  0  0  0  0  0  0
    6.2086   -0.2218    2.3752 H   0  0  0  0  0  0  0  0  0  0  0  0
   -2.2900   -1.8027   -1.8295 H   0  0  0  0  0  0  0  0  0  0  0  0
   -3.1030   -3.2619   -1.2187 H   0  0  0  0  0  0  0  0  0  0  0  0
   -2.5825    1.6440    1.5525 H   0  0  0  0  0  0  0  0  0  0  0  0
   -1.6687    0.2957    0.9571 H   0  0  0  0  0  0  0  0  0  0  0  0
   -2.8584    2.5332   -0.7926 H   0  0  0  0  0  0  0  0  0  0  0  0
   -2.0131    1.1456   -1.4284 H   0  0  0  0  0  0  0  0  0  0  0  0
   -4.9910   -2.9059   -0.0265 H   0  0  0  0  0  0  0  0  0  0  0  0
   -4.9918    1.9920    0.7710 H   0  0  0  0  0  0  0  0  0  0  0  0
   -7.1182   -1.6722    0.0915 H   0  0  0  0  0  0  0  0  0  0  0  0
   -7.1228    0.7752    0.4961 H   0  0  0  0  0  0  0  0  0  0  0  0
    0.4196    0.8915   -1.1524 H   0  0  0  0  0  0  0  0  0  0  0  0
   -1.6609    4.3091    0.4439 H   0  0  0  0  0  0  0  0  0  0  0  0
    0.4927    5.4837    0.7270 H   0  0  0  0  0  0  0  0  0  0  0  0
    2.5755    4.4277    0.1024 H   0  0  0  0  0  0  0  0  0  0  0  0
    4.8385    2.0579   -1.0867 H   0  0  0  0  0  0  0  0  0  0  0  0
    4.1916    2.9033    0.3152 H   0  0  0  0  0  0  0  0  0  0  0  0
    4.0332    3.5988   -1.3585 H   0  0  0  0  0  0  0  0  0  0  0  0
  1 13  1  0  0  0  0
  1 14  1  0  0  0  0
  2 25  1  0  0  0  0
  2 28  1  0  0  0  0
  3  5  1  0  0  0  0
  3  6  1  0  0  0  0
  3  9  1  0  0  0  0
  4  7  1  0  0  0  0
  4  8  1  0  0  0  0
  4 12  1  0  0  0  0
  5  7  1  0  0  0  0
  5 29  1  0  0  0  0
  5 30  1  0  0  0  0
  6  8  1  0  0  0  0
  6 31  1  0  0  0  0
  6 32  1  0  0  0  0
  7 33  1  0  0  0  0
  7 34  1  0  0  0  0
  8 35  1  0  0  0  0
  8 36  1  0  0  0  0
  9 10  1  0  0  0  0
  9 37  1  0  0  0  0
  9 38  1  0  0  0  0
 10 11  1  0  0  0  0
 10 39  1  0  0  0  0
 10 40  1  0  0  0  0
 11 13  1  0  0  0  0
 11 41  1  0  0  0  0
 11 42  1  0  0  0  0
 12 43  1  0  0  0  0
 12 44  1  0  0  0  0
 12 45  1  0  0  0  0
 13 46  1  0  0  0  0
 13 47  1  0  0  0  0
 14 15  1  0  0  0  0
 14 18  2  0  0  0  0
 15 16  1  0  0  0  0
 15 19  2  0  0  0  0
 16 17  1  0  0  0  0
 16 48  1  0  0  0  0
 16 49  1  0  0  0  0
 17 20  1  0  0  0  0
 17 50  1  0  0  0  0
 17 51  1  0  0  0  0
 18 21  1  0  0  0  0
 18 52  1  0  0  0  0
 19 22  1  0  0  0  0
 19 53  1  0  0  0  0
 20 23  2  0  0  0  0
 20 24  1  0  0  0  0
 21 22  2  0  0  0  0
 21 54  1  0  0  0  0
 22 55  1  0  0  0  0
 23 25  1  0  0  0  0
 23 56  1  0  0  0  0
 24 26  2  0  0  0  0
 24 57  1  0  0  0  0
 25 27  2  0  0  0  0
 26 27  1  0  0  0  0
 26 58  1  0  0  0  0
 27 59  1  0  0  0  0
 28 60  1  0  0  0  0
 28 61  1  0  0  0  0
 28 62  1  0  0  0  0
M  END
> <PUBCHEM_COMPOUND_CID>
25157543

> <PUBCHEM_CONFORMER_RMSD>
1.4

> <PUBCHEM_CONFORMER_DIVERSEORDER>
1
32
78
107
110
17
63
120
113
161
29
96
33
129
72
118
157
167
24
123
97
8
151
144
77
154
104
26
59
83
50
139
12
30
168
68
46
116
13
149
153
146
90
37
124
136
148
79
84
6
88
75
51
143
135
81
87
108
109
114
34
74
36
89
128
152
122
54
141
20
117
65
2
43
166
145
101
27
86
23
31
82
49
52
66
61
133
165
35
94
21
9
53
159
115
38
130
132
80
140
164
112
91
98
137
19
16
55
40
10
156
18
70
48
163
93
103
142
67
56
126
150
73
22
69
138
47
155
158
102
5
106
162
100
60
119
58
39
62
121
160
44
147
14
64
76
45
111
57
127
15
42
95
105
134
11
125
131
92
85
25
41
7
3
4
28
71
99

> <PUBCHEM_MMFF94_PARTIAL_CHARGES>
34
1 -0.36
12 0.27
13 0.28
14 0.08
15 -0.14
16 0.14
17 0.14
18 -0.15
19 -0.15
2 -0.36
20 -0.14
21 -0.15
22 -0.15
23 -0.15
24 -0.15
25 0.08
26 -0.15
27 -0.15
28 0.28
3 -0.81
4 -0.81
5 0.27
52 0.15
53 0.15
54 0.15
55 0.15
56 0.15
57 0.15
58 0.15
59 0.15
6 0.27
7 0.27
8 0.27
9 0.27

> <PUBCHEM_EFFECTIVE_ROTOR_COUNT>
11.2

> <PUBCHEM_PHARMACOPHORE_FEATURES>
7
1 1 acceptor
1 2 acceptor
1 3 cation
1 4 cation
6 14 15 18 19 21 22 rings
6 20 23 24 25 26 27 rings
6 3 4 5 6 7 8 rings

> <PUBCHEM_HEAVY_ATOM_COUNT>
28

> <PUBCHEM_ATOM_DEF_STEREO_COUNT>
0

> <PUBCHEM_ATOM_UDEF_STEREO_COUNT>
0

> <PUBCHEM_BOND_DEF_STEREO_COUNT>
0

> <PUBCHEM_BOND_UDEF_STEREO_COUNT>
0

> <PUBCHEM_ISOTOPIC_ATOM_COUNT>
0

> <PUBCHEM_COMPONENT_COUNT>
1

> <PUBCHEM_CACTVS_TAUTO_COUNT>
1

> <PUBCHEM_CONFORMER_ID>
017FDFA700000001

> <PUBCHEM_MMFF94_ENERGY>
76.1866

> <PUBCHEM_FEATURE_SELFOVERLAP>
35.524

> <PUBCHEM_SHAPE_FINGERPRINT>
1100329 8 18337953492742401215
11135926 11 18192141818771414420
11513181 2 17915466201641657574
12107183 9 18267878198807458353
12788726 201 18116438033379115602
13402501 40 18271803475906887155
1361 2 18410858788791263091
138480 1 18411427185248401711
14117953 113 18341613655803825069
14394314 77 18339926029582881720
15001296 14 18263083374109909508
15274700 259 17750221514885940909
15781502 13 17338179416070149510
15927050 60 17907864260051727428
15961568 22 18341054012485280142
16120349 306 17981040039712988537
17627616 140 18049445038901078365
18336668 15 18113901541694781006
19611394 137 18188788252488369555
21033648 29 17846203437302097467
21344244 246 18195516220690119631
21796203 349 18047508666023575208
22113638 7 18341609339087755999
23559900 14 18412257333992266993
25019877 29 17132110243313306119
338550 245 18335422413007114100
3680242 22 18410302431876313489
373842 8 18338519750058017539
463206 1 18335705008869990680
5309563 4 18410573950887054713
653340 110 18124878949849019216
9777508 108 17474953121144255070
9961470 85 18054214694820493403

> <PUBCHEM_SHAPE_MULTIPOLES>
554.53
12.87
5.79
1.1
4.25
4.39
-0.16
-6.67
-3.93
-3.2
1.27
-0.94
-0.29
-0.96

> <PUBCHEM_SHAPE_SELFOVERLAP>
1145.131

> <PUBCHEM_SHAPE_VOLUME>
319

> <PUBCHEM_COORDINATE_TYPE>
2
5
10

$$$$