44299404
  -OEChem-03242010093D

 83 85  0     1  0  0  0  0  0999 V2000
   -0.5629   -1.5476   -0.0820 S   0  0  0  0  0  0  0  0  0  0  0  0
   -0.3848   -3.5705    0.2181 S   0  0  0  0  0  0  0  0  0  0  0  0
   -0.6703    0.6399   -3.5749 O   0  0  0  0  0  0  0  0  0  0  0  0
    2.9968   -5.1029    1.9794 O   0  0  0  0  0  0  0  0  0  0  0  0
    5.0383   -2.2520    0.1816 O   0  0  0  0  0  0  0  0  0  0  0  0
    1.9654   -3.1556    2.5624 O   0  0  0  0  0  0  0  0  0  0  0  0
   -3.6276    2.6225   -1.7104 O   0  0  0  0  0  0  0  0  0  0  0  0
    2.3282    2.2981    0.2068 O   0  0  0  0  0  0  0  0  0  0  0  0
   -7.5355   -1.9934    1.3973 O   0  0  0  0  0  0  0  0  0  0  0  0
   -2.4177    1.0358   -0.5292 N   0  0  0  0  0  0  0  0  0  0  0  0
    2.7216   -2.1701    0.1567 N   0  0  0  0  0  0  0  0  0  0  0  0
    0.0785    1.3604   -1.5089 N   0  0  0  0  0  0  0  0  0  0  0  0
    3.0373    0.3797   -0.8967 N   0  0  0  0  0  0  0  0  0  0  0  0
   -2.8054    4.2024    0.6037 N   0  0  0  0  0  0  0  0  0  0  0  0
   -1.9523   -1.3051   -1.3089 C   0  0  0  0  0  0  0  0  0  0  0  0
    1.2377   -4.0977   -0.5417 C   0  0  0  0  0  0  0  0  0  0  0  0
   -2.0855    0.2119   -1.6694 C   0  0  2  0  0  0  0  0  0  0  0  0
    2.4861   -3.6028    0.2414 C   0  0  2  0  0  0  0  0  0  0  0  0
   -3.2631   -1.7920   -0.6545 C   0  0  0  0  0  0  0  0  0  0  0  0
   -1.7232   -2.1258   -2.5887 C   0  0  0  0  0  0  0  0  0  0  0  0
    1.3350   -3.6773   -2.0174 C   0  0  0  0  0  0  0  0  0  0  0  0
    1.2047   -5.6424   -0.5014 C   0  0  0  0  0  0  0  0  0  0  0  0
   -0.8512    0.7992   -2.3671 C   0  0  0  0  0  0  0  0  0  0  0  0
    3.9686   -0.0825    0.1224 C   0  0  1  0  0  0  0  0  0  0  0  0
    3.9923   -1.6091    0.1074 C   0  0  0  0  0  0  0  0  0  0  0  0
    2.4385   -3.8967    1.7137 C   0  0  0  0  0  0  0  0  0  0  0  0
   -3.1739    2.1910   -0.6517 C   0  0  0  0  0  0  0  0  0  0  0  0
   -3.4163    2.8753    0.6902 C   0  0  2  0  0  0  0  0  0  0  0  0
    5.3510    0.5154   -0.1062 C   0  0  0  0  0  0  0  0  0  0  0  0
    1.3878    1.7974   -1.9403 C   0  0  0  0  0  0  0  0  0  0  0  0
   -4.9206    3.0099    0.9685 C   0  0  0  0  0  0  0  0  0  0  0  0
    2.3135    1.5549   -0.7725 C   0  0  0  0  0  0  0  0  0  0  0  0
    5.4355    1.9329    0.3935 C   0  0  0  0  0  0  0  0  0  0  0  0
   -5.6178    1.6746    1.0829 C   0  0  0  0  0  0  0  0  0  0  0  0
    5.1212    2.9926   -0.4575 C   0  0  0  0  0  0  0  0  0  0  0  0
    5.8280    2.1868    1.7077 C   0  0  0  0  0  0  0  0  0  0  0  0
   -6.1588    1.0709   -0.0522 C   0  0  0  0  0  0  0  0  0  0  0  0
   -5.7209    1.0457    2.3236 C   0  0  0  0  0  0  0  0  0  0  0  0
    5.1992    4.3058    0.0059 C   0  0  0  0  0  0  0  0  0  0  0  0
    5.9059    3.5001    2.1711 C   0  0  0  0  0  0  0  0  0  0  0  0
    5.5914    4.5597    1.3202 C   0  0  0  0  0  0  0  0  0  0  0  0
   -6.8030   -0.1619    0.0535 C   0  0  0  0  0  0  0  0  0  0  0  0
   -6.3654   -0.1869    2.4294 C   0  0  0  0  0  0  0  0  0  0  0  0
   -6.9064   -0.7907    1.2943 C   0  0  0  0  0  0  0  0  0  0  0  0
   -2.9081    0.3217   -2.3904 H   0  0  0  0  0  0  0  0  0  0  0  0
    3.3822   -4.0881   -0.1686 H   0  0  0  0  0  0  0  0  0  0  0  0
   -3.2609   -2.8734   -0.4789 H   0  0  0  0  0  0  0  0  0  0  0  0
   -4.1187   -1.5811   -1.3072 H   0  0  0  0  0  0  0  0  0  0  0  0
   -3.4565   -1.3004    0.3056 H   0  0  0  0  0  0  0  0  0  0  0  0
   -1.7767   -3.2036   -2.4039 H   0  0  0  0  0  0  0  0  0  0  0  0
   -0.7570   -1.9093   -3.0531 H   0  0  0  0  0  0  0  0  0  0  0  0
   -2.4972   -1.9019   -3.3329 H   0  0  0  0  0  0  0  0  0  0  0  0
    0.5047   -4.0785   -2.6084 H   0  0  0  0  0  0  0  0  0  0  0  0
    2.2581   -4.0645   -2.4660 H   0  0  0  0  0  0  0  0  0  0  0  0
    1.3565   -2.5910   -2.1455 H   0  0  0  0  0  0  0  0  0  0  0  0
    0.3990   -6.0436   -1.1290 H   0  0  0  0  0  0  0  0  0  0  0  0
    1.0571   -6.0364    0.5102 H   0  0  0  0  0  0  0  0  0  0  0  0
    2.1432   -6.0625   -0.8829 H   0  0  0  0  0  0  0  0  0  0  0  0
   -2.0395    0.7730    0.3761 H   0  0  0  0  0  0  0  0  0  0  0  0
    1.9155   -1.5527    0.1935 H   0  0  0  0  0  0  0  0  0  0  0  0
    3.5782    0.2127    1.1057 H   0  0  0  0  0  0  0  0  0  0  0  0
   -2.9377    2.3177    1.5034 H   0  0  0  0  0  0  0  0  0  0  0  0
    5.6268    0.4760   -1.1687 H   0  0  0  0  0  0  0  0  0  0  0  0
    6.1234   -0.0666    0.4132 H   0  0  0  0  0  0  0  0  0  0  0  0
   -0.1717    1.4796   -0.5313 H   0  0  0  0  0  0  0  0  0  0  0  0
    1.3450    2.8684   -2.1572 H   0  0  0  0  0  0  0  0  0  0  0  0
    1.7023    1.2606   -2.8396 H   0  0  0  0  0  0  0  0  0  0  0  0
    2.9406   -0.1771   -1.7411 H   0  0  0  0  0  0  0  0  0  0  0  0
   -5.0817    3.5755    1.8964 H   0  0  0  0  0  0  0  0  0  0  0  0
   -5.4109    3.5974    0.1796 H   0  0  0  0  0  0  0  0  0  0  0  0
   -1.7951    4.1068    0.5052 H   0  0  0  0  0  0  0  0  0  0  0  0
   -2.9584    4.7063    1.4765 H   0  0  0  0  0  0  0  0  0  0  0  0
    2.9750   -5.3138    2.9371 H   0  0  0  0  0  0  0  0  0  0  0  0
    4.8297    2.8124   -1.4888 H   0  0  0  0  0  0  0  0  0  0  0  0
    6.0730    1.3699    2.3813 H   0  0  0  0  0  0  0  0  0  0  0  0
   -6.0955    1.5510   -1.0246 H   0  0  0  0  0  0  0  0  0  0  0  0
   -5.3012    1.5052    3.2144 H   0  0  0  0  0  0  0  0  0  0  0  0
    4.9576    5.1309   -0.6576 H   0  0  0  0  0  0  0  0  0  0  0  0
    6.2108    3.6977    3.1946 H   0  0  0  0  0  0  0  0  0  0  0  0
    5.6525    5.5823    1.6808 H   0  0  0  0  0  0  0  0  0  0  0  0
   -7.2233   -0.6268   -0.8341 H   0  0  0  0  0  0  0  0  0  0  0  0
   -6.4385   -0.6668    3.4016 H   0  0  0  0  0  0  0  0  0  0  0  0
   -7.5137   -2.2817    2.3260 H   0  0  0  0  0  0  0  0  0  0  0  0
  1  2  1  0  0  0  0
  1 15  1  0  0  0  0
  2 16  1  0  0  0  0
  3 23  2  0  0  0  0
  4 26  1  0  0  0  0
  4 73  1  0  0  0  0
  5 25  2  0  0  0  0
  6 26  2  0  0  0  0
  7 27  2  0  0  0  0
  8 32  2  0  0  0  0
  9 44  1  0  0  0  0
  9 83  1  0  0  0  0
 10 17  1  0  0  0  0
 10 27  1  0  0  0  0
 10 59  1  0  0  0  0
 11 18  1  0  0  0  0
 11 25  1  0  0  0  0
 11 60  1  0  0  0  0
 12 23  1  0  0  0  0
 12 30  1  0  0  0  0
 12 65  1  0  0  0  0
 13 24  1  0  0  0  0
 13 32  1  0  0  0  0
 13 68  1  0  0  0  0
 14 28  1  0  0  0  0
 14 71  1  0  0  0  0
 14 72  1  0  0  0  0
 15 17  1  0  0  0  0
 15 19  1  0  0  0  0
 15 20  1  0  0  0  0
 16 18  1  0  0  0  0
 16 21  1  0  0  0  0
 16 22  1  0  0  0  0
 17 23  1  0  0  0  0
 17 45  1  0  0  0  0
 18 26  1  0  0  0  0
 18 46  1  0  0  0  0
 19 47  1  0  0  0  0
 19 48  1  0  0  0  0
 19 49  1  0  0  0  0
 20 50  1  0  0  0  0
 20 51  1  0  0  0  0
 20 52  1  0  0  0  0
 21 53  1  0  0  0  0
 21 54  1  0  0  0  0
 21 55  1  0  0  0  0
 22 56  1  0  0  0  0
 22 57  1  0  0  0  0
 22 58  1  0  0  0  0
 24 25  1  0  0  0  0
 24 29  1  0  0  0  0
 24 61  1  0  0  0  0
 27 28  1  0  0  0  0
 28 31  1  0  0  0  0
 28 62  1  0  0  0  0
 29 33  1  0  0  0  0
 29 63  1  0  0  0  0
 29 64  1  0  0  0  0
 30 32  1  0  0  0  0
 30 66  1  0  0  0  0
 30 67  1  0  0  0  0
 31 34  1  0  0  0  0
 31 69  1  0  0  0  0
 31 70  1  0  0  0  0
 33 35  2  0  0  0  0
 33 36  1  0  0  0  0
 34 37  2  0  0  0  0
 34 38  1  0  0  0  0
 35 39  1  0  0  0  0
 35 74  1  0  0  0  0
 36 40  2  0  0  0  0
 36 75  1  0  0  0  0
 37 42  1  0  0  0  0
 37 76  1  0  0  0  0
 38 43  2  0  0  0  0
 38 77  1  0  0  0  0
 39 41  2  0  0  0  0
 39 78  1  0  0  0  0
 40 41  1  0  0  0  0
 40 79  1  0  0  0  0
 41 80  1  0  0  0  0
 42 44  2  0  0  0  0
 42 81  1  0  0  0  0
 43 44  1  0  0  0  0
 43 82  1  0  0  0  0
M  END
> <PUBCHEM_COMPOUND_CID>
44299404

> <PUBCHEM_CONFORMER_RMSD>
1.2

> <PUBCHEM_CONFORMER_DIVERSEORDER>
1
87
6
34
188
112
23
196
135
109
125
189
195
122
138
48
78
55
126
186
142
40
133
77
63
157
45
73
5
191
80
64
139
92
181
148
37
114
3
185
134
85
81
143
183
153
104
66
118
131
95
60
165
44
187
144
53
69
117
108
141
193
162
84
145
150
83
115
27
7
29
127
54
119
129
111
4
192
169
35
86
168
57
76
30
194
50
177
43
38
100
67
47
70
107
68
175
154
121
176
90
120
74
113
31
41
22
163
36
24
152
166
17
13
172
94
98
88
123
178
75
72
103
171
158
52
110
33
25
190
159
174
42
46
8
105
39
97
179
160
132
151
102
2
15
136
161
164
184
93
130
124
173
82
101
149
106
65
99
32
116
91
59
19
128
49
16
140
137
9
182
180
21
58
146
62
89
11
155
12
51
71
10
96
56
167
28
61
156
20
14
197
147
26
170
18
79

> <PUBCHEM_MMFF94_PARTIAL_CHARGES>
57
1 -0.23
10 -0.73
11 -0.73
12 -0.73
13 -0.73
14 -0.99
15 0.23
16 0.23
17 0.36
18 0.36
2 -0.23
23 0.57
24 0.36
25 0.57
26 0.66
27 0.57
28 0.33
29 0.14
3 -0.57
30 0.36
31 0.14
32 0.57
33 -0.14
34 -0.14
35 -0.15
36 -0.15
37 -0.15
38 -0.15
39 -0.15
4 -0.65
40 -0.15
41 -0.15
42 -0.15
43 -0.15
44 0.08
5 -0.57
59 0.37
6 -0.57
60 0.37
65 0.37
68 0.37
7 -0.57
71 0.36
72 0.36
73 0.5
74 0.15
75 0.15
76 0.15
77 0.15
78 0.15
79 0.15
8 -0.57
80 0.15
81 0.15
82 0.15
83 0.45
9 -0.53

> <PUBCHEM_EFFECTIVE_ROTOR_COUNT>
10.2

> <PUBCHEM_PHARMACOPHORE_FEATURES>
18
1 10 donor
1 11 donor
1 12 donor
1 13 donor
1 14 cation
1 14 donor
1 3 acceptor
1 4 acceptor
1 5 acceptor
1 6 acceptor
1 7 acceptor
1 8 acceptor
1 9 donor
3 15 19 20 hydrophobe
3 16 21 22 hydrophobe
3 4 6 26 anion
6 33 35 36 39 40 41 rings
6 34 37 38 42 43 44 rings

> <PUBCHEM_HEAVY_ATOM_COUNT>
44

> <PUBCHEM_ATOM_DEF_STEREO_COUNT>
4

> <PUBCHEM_ATOM_UDEF_STEREO_COUNT>
0

> <PUBCHEM_BOND_DEF_STEREO_COUNT>
0

> <PUBCHEM_BOND_UDEF_STEREO_COUNT>
0

> <PUBCHEM_ISOTOPIC_ATOM_COUNT>
0

> <PUBCHEM_COMPONENT_COUNT>
1

> <PUBCHEM_CACTVS_TAUTO_COUNT>
108

> <PUBCHEM_CONFORMER_ID>
02A3F48C00000001

> <PUBCHEM_MMFF94_ENERGY>
115.971

> <PUBCHEM_FEATURE_SELFOVERLAP>
91.417

> <PUBCHEM_SHAPE_FINGERPRINT>
12677640 9 17764591319489894823
131258 38 17681563527888935211
14020679 6 18057322988175181161
15406563 185 18056225602956663124
16112460 7 18343022207355923544
19301676 85 9295023370343071609
19319366 153 18343860022299861808
19611394 137 17683520637259149026
21458453 9 18187093857618577929
21796203 349 17977941294583160162
4756261 7 18339651165309529367

> <PUBCHEM_SHAPE_MULTIPOLES>
847.21
17.07
7.5
2.48
13.11
5.45
-0.5
-15.76
11.45
-9.38
2.31
1.14
0.36
0.09

> <PUBCHEM_SHAPE_SELFOVERLAP>
1741.704

> <PUBCHEM_SHAPE_VOLUME>
486.2

> <PUBCHEM_COORDINATE_TYPE>
2
5
10

$$$$