25158434
  -OEChem-03242010103D

 66 69  0     0  0  0  0  0  0999 V2000
   -6.4420    0.2251   -1.2598 F   0  0  0  0  0  0  0  0  0  0  0  0
   -5.4757    0.7605    0.6067 F   0  0  0  0  0  0  0  0  0  0  0  0
   -4.6112    1.3981   -1.2840 F   0  0  0  0  0  0  0  0  0  0  0  0
    4.1036   -0.7095    1.1481 O   0  0  0  0  0  0  0  0  0  0  0  0
   -1.5609    2.6020    2.4840 O   0  0  0  0  0  0  0  0  0  0  0  0
    1.5840   -1.9860    1.3506 N   0  0  0  0  0  0  0  0  0  0  0  0
   -1.0835   -2.1302    0.3392 N   0  0  0  0  0  0  0  0  0  0  0  0
    0.4373   -1.8223    2.2524 C   0  0  0  0  0  0  0  0  0  0  0  0
    1.2462   -2.9323    0.2801 C   0  0  0  0  0  0  0  0  0  0  0  0
   -0.7828   -1.2860    1.4994 C   0  0  0  0  0  0  0  0  0  0  0  0
    0.0540   -2.4322   -0.5388 C   0  0  0  0  0  0  0  0  0  0  0  0
    2.7575   -2.4473    2.0914 C   0  0  0  0  0  0  0  0  0  0  0  0
   -2.3623   -2.1001   -0.2284 C   0  0  0  0  0  0  0  0  0  0  0  0
    4.0340   -2.1171    1.3343 C   0  0  0  0  0  0  0  0  0  0  0  0
   -3.1252   -0.9339   -0.1677 C   0  0  0  0  0  0  0  0  0  0  0  0
   -2.8747   -3.2370   -0.8531 C   0  0  0  0  0  0  0  0  0  0  0  0
   -4.4007   -0.9050   -0.7317 C   0  0  0  0  0  0  0  0  0  0  0  0
   -4.1500   -3.2081   -1.4172 C   0  0  0  0  0  0  0  0  0  0  0  0
    4.7723   -0.2656    0.0372 C   0  0  0  0  0  0  0  0  0  0  0  0
   -4.9131   -2.0419   -1.3564 C   0  0  0  0  0  0  0  0  0  0  0  0
    4.1212    0.5033   -0.9273 C   0  0  0  0  0  0  0  0  0  0  0  0
    2.6804    0.8626   -0.7716 C   0  0  0  0  0  0  0  0  0  0  0  0
    2.4421    2.3201   -0.3321 C   0  0  0  0  0  0  0  0  0  0  0  0
   -5.2167    0.3416   -0.6674 C   0  0  0  0  0  0  0  0  0  0  0  0
    6.1190   -0.5917   -0.1234 C   0  0  0  0  0  0  0  0  0  0  0  0
    4.8166    0.9461   -2.0525 C   0  0  0  0  0  0  0  0  0  0  0  0
    0.9820    2.6540   -0.1456 C   0  0  0  0  0  0  0  0  0  0  0  0
    6.8144   -0.1488   -1.2484 C   0  0  0  0  0  0  0  0  0  0  0  0
    6.1633    0.6201   -2.2130 C   0  0  0  0  0  0  0  0  0  0  0  0
    0.3778    2.4709    1.0983 C   0  0  0  0  0  0  0  0  0  0  0  0
    0.2369    3.1459   -1.2173 C   0  0  0  0  0  0  0  0  0  0  0  0
   -0.9714    2.7798    1.2704 C   0  0  0  0  0  0  0  0  0  0  0  0
   -1.1124    3.4547   -1.0452 C   0  0  0  0  0  0  0  0  0  0  0  0
   -1.7164    3.2717    0.1987 C   0  0  0  0  0  0  0  0  0  0  0  0
   -2.9435    2.9386    2.5901 C   0  0  0  0  0  0  0  0  0  0  0  0
    0.6810   -1.1083    3.0487 H   0  0  0  0  0  0  0  0  0  0  0  0
    0.1841   -2.7767    2.7335 H   0  0  0  0  0  0  0  0  0  0  0  0
    1.0119   -3.9219    0.6956 H   0  0  0  0  0  0  0  0  0  0  0  0
    2.0860   -3.0608   -0.4110 H   0  0  0  0  0  0  0  0  0  0  0  0
   -1.6302   -1.2634    2.1959 H   0  0  0  0  0  0  0  0  0  0  0  0
   -0.5869   -0.2614    1.1670 H   0  0  0  0  0  0  0  0  0  0  0  0
    0.3302   -1.5265   -1.0943 H   0  0  0  0  0  0  0  0  0  0  0  0
   -0.1964   -3.2003   -1.2794 H   0  0  0  0  0  0  0  0  0  0  0  0
    2.7063   -3.5179    2.3241 H   0  0  0  0  0  0  0  0  0  0  0  0
    2.8125   -1.9140    3.0499 H   0  0  0  0  0  0  0  0  0  0  0  0
    4.0828   -2.6532    0.3789 H   0  0  0  0  0  0  0  0  0  0  0  0
    4.8965   -2.4292    1.9350 H   0  0  0  0  0  0  0  0  0  0  0  0
   -2.7442   -0.0305    0.3011 H   0  0  0  0  0  0  0  0  0  0  0  0
   -2.3021   -4.1599   -0.8978 H   0  0  0  0  0  0  0  0  0  0  0  0
   -4.5504   -4.0945   -1.9006 H   0  0  0  0  0  0  0  0  0  0  0  0
   -5.9045   -2.0392   -1.8009 H   0  0  0  0  0  0  0  0  0  0  0  0
    2.1695    0.6820   -1.7278 H   0  0  0  0  0  0  0  0  0  0  0  0
    2.1812    0.1922   -0.0670 H   0  0  0  0  0  0  0  0  0  0  0  0
    2.8793    3.0124   -1.0638 H   0  0  0  0  0  0  0  0  0  0  0  0
    2.9791    2.5161    0.6059 H   0  0  0  0  0  0  0  0  0  0  0  0
    6.6419   -1.1828    0.6234 H   0  0  0  0  0  0  0  0  0  0  0  0
    4.3208    1.5452   -2.8117 H   0  0  0  0  0  0  0  0  0  0  0  0
    7.8635   -0.4011   -1.3727 H   0  0  0  0  0  0  0  0  0  0  0  0
    6.7051    0.9650   -3.0889 H   0  0  0  0  0  0  0  0  0  0  0  0
    0.9526    2.0843    1.9364 H   0  0  0  0  0  0  0  0  0  0  0  0
    0.6961    3.2903   -2.1916 H   0  0  0  0  0  0  0  0  0  0  0  0
   -1.6922    3.8361   -1.8807 H   0  0  0  0  0  0  0  0  0  0  0  0
   -2.7681    3.5296    0.2618 H   0  0  0  0  0  0  0  0  0  0  0  0
   -3.2476    2.7349    3.6219 H   0  0  0  0  0  0  0  0  0  0  0  0
   -3.5615    2.3059    1.9440 H   0  0  0  0  0  0  0  0  0  0  0  0
   -3.1130    4.0058    2.4111 H   0  0  0  0  0  0  0  0  0  0  0  0
  1 24  1  0  0  0  0
  2 24  1  0  0  0  0
  3 24  1  0  0  0  0
  4 14  1  0  0  0  0
  4 19  1  0  0  0  0
  5 32  1  0  0  0  0
  5 35  1  0  0  0  0
  6  8  1  0  0  0  0
  6  9  1  0  0  0  0
  6 12  1  0  0  0  0
  7 10  1  0  0  0  0
  7 11  1  0  0  0  0
  7 13  1  0  0  0  0
  8 10  1  0  0  0  0
  8 36  1  0  0  0  0
  8 37  1  0  0  0  0
  9 11  1  0  0  0  0
  9 38  1  0  0  0  0
  9 39  1  0  0  0  0
 10 40  1  0  0  0  0
 10 41  1  0  0  0  0
 11 42  1  0  0  0  0
 11 43  1  0  0  0  0
 12 14  1  0  0  0  0
 12 44  1  0  0  0  0
 12 45  1  0  0  0  0
 13 15  1  0  0  0  0
 13 16  2  0  0  0  0
 14 46  1  0  0  0  0
 14 47  1  0  0  0  0
 15 17  2  0  0  0  0
 15 48  1  0  0  0  0
 16 18  1  0  0  0  0
 16 49  1  0  0  0  0
 17 20  1  0  0  0  0
 17 24  1  0  0  0  0
 18 20  2  0  0  0  0
 18 50  1  0  0  0  0
 19 21  1  0  0  0  0
 19 25  2  0  0  0  0
 20 51  1  0  0  0  0
 21 22  1  0  0  0  0
 21 26  2  0  0  0  0
 22 23  1  0  0  0  0
 22 52  1  0  0  0  0
 22 53  1  0  0  0  0
 23 27  1  0  0  0  0
 23 54  1  0  0  0  0
 23 55  1  0  0  0  0
 25 28  1  0  0  0  0
 25 56  1  0  0  0  0
 26 29  1  0  0  0  0
 26 57  1  0  0  0  0
 27 30  2  0  0  0  0
 27 31  1  0  0  0  0
 28 29  2  0  0  0  0
 28 58  1  0  0  0  0
 29 59  1  0  0  0  0
 30 32  1  0  0  0  0
 30 60  1  0  0  0  0
 31 33  2  0  0  0  0
 31 61  1  0  0  0  0
 32 34  2  0  0  0  0
 33 34  1  0  0  0  0
 33 62  1  0  0  0  0
 34 63  1  0  0  0  0
 35 64  1  0  0  0  0
 35 65  1  0  0  0  0
 35 66  1  0  0  0  0
M  END
> <PUBCHEM_COMPOUND_CID>
25158434

> <PUBCHEM_CONFORMER_RMSD>
1.6

> <PUBCHEM_CONFORMER_DIVERSEORDER>
1
11
132
76
102
139
35
92
122
89
138
135
30
96
80
23
125
82
58
124
137
81
130
63
51
79
3
88
46
110
133
94
83
60
31
113
77
19
64
95
84
73
104
38
69
140
67
91
111
72
22
127
99
39
42
12
57
118
21
97
65
86
136
112
56
129
50
15
4
45
126
119
53
43
123
32
117
10
108
16
8
85
75
74
24
36
40
107
78
131
98
18
59
87
70
25
17
66
114
101
5
34
44
49
48
100
106
120
29
71
103
105
93
6
7
90
28
116
37
62
109
27
128
134
47
9
115
33
121
14
55
61
2
13
20
68
26
52
41
54

> <PUBCHEM_MMFF94_PARTIAL_CHARGES>
47
1 -0.34
10 0.37
11 0.37
12 0.27
13 0.1
14 0.28
15 -0.15
16 -0.15
17 -0.14
18 -0.15
19 0.08
2 -0.34
20 -0.15
21 -0.14
22 0.14
23 0.14
24 1.16
25 -0.15
26 -0.15
27 -0.14
28 -0.15
29 -0.15
3 -0.34
30 -0.15
31 -0.15
32 0.08
33 -0.15
34 -0.15
35 0.28
4 -0.36
48 0.15
49 0.15
5 -0.36
50 0.15
51 0.15
56 0.15
57 0.15
58 0.15
59 0.15
6 -0.81
60 0.15
61 0.15
62 0.15
63 0.15
7 -0.84
8 0.27
9 0.27

> <PUBCHEM_EFFECTIVE_ROTOR_COUNT>
11.2

> <PUBCHEM_PHARMACOPHORE_FEATURES>
8
1 4 acceptor
1 5 acceptor
1 6 cation
1 7 cation
6 13 15 16 17 18 20 rings
6 19 21 25 26 28 29 rings
6 27 30 31 32 33 34 rings
6 6 7 8 9 10 11 rings

> <PUBCHEM_HEAVY_ATOM_COUNT>
35

> <PUBCHEM_ATOM_DEF_STEREO_COUNT>
0

> <PUBCHEM_ATOM_UDEF_STEREO_COUNT>
0

> <PUBCHEM_BOND_DEF_STEREO_COUNT>
0

> <PUBCHEM_BOND_UDEF_STEREO_COUNT>
0

> <PUBCHEM_ISOTOPIC_ATOM_COUNT>
0

> <PUBCHEM_COMPONENT_COUNT>
1

> <PUBCHEM_CACTVS_TAUTO_COUNT>
1

> <PUBCHEM_CONFORMER_ID>
017FE32200000001

> <PUBCHEM_MMFF94_ENERGY>
109.6885

> <PUBCHEM_FEATURE_SELFOVERLAP>
40.6

> <PUBCHEM_SHAPE_FINGERPRINT>
10190206 1 18337125509801367876
10670039 82 18342181025410865066
10675989 125 18114457985358837204
11479125 193 16012157736672804164
11513181 2 17270855566748001547
12788726 201 18411421678889370616
13165053 182 16883319530244980436
13165054 235 18191289507927581382
13636023 20 17984690375662898290
13947920 75 18271816700595994368
14017579 151 17344881093643197215
14020679 6 12324240611551900286
14068700 675 18341611546753927380
14395042 70 16188653138444264041
14464042 87 18411697656165511242
14840074 17 18264781977893981849
14931854 50 18333728013727214390
14932702 115 18196351659483219873
15001296 14 18339633542378063409
15183329 4 18409447011566419895
15264996 142 17900830340049605386
15297060 5 17631741461316338435
15351339 4 18191012598479727362
15420108 30 17909564864752586817
17138139 8 18335979852659717792
20775438 99 16903535248894831566
24893992 56 18336826490342214775
437795 70 18342190963806796710
44575985 13 17387436716512626780
463206 1 18408321094769916673
513532 50 17913758690390500282
581034 39 17844817975541381795
6287921 2 17407405732324808080

> <PUBCHEM_SHAPE_MULTIPOLES>
676.76
13.57
4.99
2.21
5.89
1.77
0.9
-3.31
-8.07
-3.64
0.92
0.4
0.32
-3.57

> <PUBCHEM_SHAPE_SELFOVERLAP>
1444.013

> <PUBCHEM_SHAPE_VOLUME>
377.7

> <PUBCHEM_COORDINATE_TYPE>
2
5
10

$$$$