25156411
  -OEChem-03242010103D

 72 75  0     0  0  0  0  0  0999 V2000
   -6.7719   -1.4350    1.6841 F   0  0  0  0  0  0  0  0  0  0  0  0
    4.1809    0.2240   -0.7710 O   0  0  0  0  0  0  0  0  0  0  0  0
   -1.8052   -1.0616   -3.4818 O   0  0  0  0  0  0  0  0  0  0  0  0
    0.0860    3.1490    0.2225 N   0  0  0  0  0  0  0  0  0  0  0  0
   -2.3461    1.7236    0.6836 N   0  0  0  0  0  0  0  0  0  0  0  0
   -0.8874    2.9697   -0.8615 C   0  0  0  0  0  0  0  0  0  0  0  0
   -0.6142    3.2718    1.5072 C   0  0  0  0  0  0  0  0  0  0  0  0
   -1.7262    1.7078   -0.6448 C   0  0  0  0  0  0  0  0  0  0  0  0
   -1.4427    2.0194    1.8028 C   0  0  0  0  0  0  0  0  0  0  0  0
    0.9168    4.3271   -0.0234 C   0  0  0  0  0  0  0  0  0  0  0  0
    2.0432    3.9880   -0.9981 C   0  0  0  0  0  0  0  0  0  0  0  0
    2.9277    2.8644   -0.4521 C   0  0  0  0  0  0  0  0  0  0  0  0
   -3.4661    0.9238    0.9365 C   0  0  0  0  0  0  0  0  0  0  0  0
    4.0785    2.5468   -1.4116 C   0  0  0  0  0  0  0  0  0  0  0  0
    4.9542    1.4077   -0.9042 C   0  0  0  0  0  0  0  0  0  0  0  0
   -4.6327    1.1022    0.1930 C   0  0  0  0  0  0  0  0  0  0  0  0
   -3.4160   -0.0515    1.9326 C   0  0  0  0  0  0  0  0  0  0  0  0
   -5.7493    0.3053    0.4457 C   0  0  0  0  0  0  0  0  0  0  0  0
   -4.5326   -0.8483    2.1852 C   0  0  0  0  0  0  0  0  0  0  0  0
   -5.6993   -0.6700    1.4417 C   0  0  0  0  0  0  0  0  0  0  0  0
    4.5634   -0.6589    0.2058 C   0  0  0  0  0  0  0  0  0  0  0  0
    3.6238   -1.4708    0.8409 C   0  0  0  0  0  0  0  0  0  0  0  0
    2.1791   -1.3991    0.4710 C   0  0  0  0  0  0  0  0  0  0  0  0
    1.6969   -2.5735   -0.4022 C   0  0  0  0  0  0  0  0  0  0  0  0
    5.9093   -0.7392    0.5629 C   0  0  0  0  0  0  0  0  0  0  0  0
    4.0301   -2.3629    1.8333 C   0  0  0  0  0  0  0  0  0  0  0  0
    0.2437   -2.4648   -0.7953 C   0  0  0  0  0  0  0  0  0  0  0  0
    6.3156   -1.6311    1.5553 C   0  0  0  0  0  0  0  0  0  0  0  0
    5.3761   -2.4431    2.1906 C   0  0  0  0  0  0  0  0  0  0  0  0
   -0.1135   -1.8047   -1.9711 C   0  0  0  0  0  0  0  0  0  0  0  0
   -0.7421   -3.0248    0.0172 C   0  0  0  0  0  0  0  0  0  0  0  0
   -1.4565   -1.7048   -2.3343 C   0  0  0  0  0  0  0  0  0  0  0  0
   -2.0851   -2.9248   -0.3459 C   0  0  0  0  0  0  0  0  0  0  0  0
   -2.4423   -2.2649   -1.5217 C   0  0  0  0  0  0  0  0  0  0  0  0
   -3.1963   -0.9970   -3.7931 C   0  0  0  0  0  0  0  0  0  0  0  0
   -0.3833    2.8665   -1.8284 H   0  0  0  0  0  0  0  0  0  0  0  0
   -1.5542    3.8398   -0.9333 H   0  0  0  0  0  0  0  0  0  0  0  0
   -1.2667    4.1555    1.5087 H   0  0  0  0  0  0  0  0  0  0  0  0
    0.1095    3.3976    2.3219 H   0  0  0  0  0  0  0  0  0  0  0  0
   -2.4777    1.6490   -1.4404 H   0  0  0  0  0  0  0  0  0  0  0  0
   -1.0886    0.8205   -0.7294 H   0  0  0  0  0  0  0  0  0  0  0  0
   -0.7692    1.1694    1.9743 H   0  0  0  0  0  0  0  0  0  0  0  0
   -2.0075    2.2014    2.7258 H   0  0  0  0  0  0  0  0  0  0  0  0
    0.3283    5.1753   -0.3954 H   0  0  0  0  0  0  0  0  0  0  0  0
    1.3871    4.6646    0.9100 H   0  0  0  0  0  0  0  0  0  0  0  0
    1.6484    3.7141   -1.9827 H   0  0  0  0  0  0  0  0  0  0  0  0
    2.6539    4.8868   -1.1496 H   0  0  0  0  0  0  0  0  0  0  0  0
    2.3306    1.9596   -0.2975 H   0  0  0  0  0  0  0  0  0  0  0  0
    3.3363    3.1539    0.5237 H   0  0  0  0  0  0  0  0  0  0  0  0
    4.6952    3.4400   -1.5641 H   0  0  0  0  0  0  0  0  0  0  0  0
    3.6569    2.2652   -2.3844 H   0  0  0  0  0  0  0  0  0  0  0  0
    5.7630    1.2266   -1.6214 H   0  0  0  0  0  0  0  0  0  0  0  0
    5.3872    1.7285    0.0525 H   0  0  0  0  0  0  0  0  0  0  0  0
   -4.6940    1.8640   -0.5798 H   0  0  0  0  0  0  0  0  0  0  0  0
   -2.5208   -0.2338    2.5199 H   0  0  0  0  0  0  0  0  0  0  0  0
   -6.6585    0.4451   -0.1315 H   0  0  0  0  0  0  0  0  0  0  0  0
   -4.4929   -1.6112    2.9571 H   0  0  0  0  0  0  0  0  0  0  0  0
    1.5831   -1.3637    1.3940 H   0  0  0  0  0  0  0  0  0  0  0  0
    1.9505   -0.4528   -0.0345 H   0  0  0  0  0  0  0  0  0  0  0  0
    1.8582   -3.5254    0.1209 H   0  0  0  0  0  0  0  0  0  0  0  0
    2.3119   -2.6364   -1.3101 H   0  0  0  0  0  0  0  0  0  0  0  0
    6.6791   -0.1498    0.0738 H   0  0  0  0  0  0  0  0  0  0  0  0
    3.3081   -3.0009    2.3362 H   0  0  0  0  0  0  0  0  0  0  0  0
    7.3645   -1.6992    1.8288 H   0  0  0  0  0  0  0  0  0  0  0  0
    5.6928   -3.1387    2.9621 H   0  0  0  0  0  0  0  0  0  0  0  0
    0.6502   -1.3634   -2.6068 H   0  0  0  0  0  0  0  0  0  0  0  0
   -0.4763   -3.5388    0.9370 H   0  0  0  0  0  0  0  0  0  0  0  0
   -2.8522   -3.3595    0.2884 H   0  0  0  0  0  0  0  0  0  0  0  0
   -3.5035   -2.2220   -1.7421 H   0  0  0  0  0  0  0  0  0  0  0  0
   -3.2912   -0.4511   -4.7374 H   0  0  0  0  0  0  0  0  0  0  0  0
   -3.7509   -0.4289   -3.0383 H   0  0  0  0  0  0  0  0  0  0  0  0
   -3.6191   -1.9941   -3.9558 H   0  0  0  0  0  0  0  0  0  0  0  0
  1 20  1  0  0  0  0
  2 15  1  0  0  0  0
  2 21  1  0  0  0  0
  3 32  1  0  0  0  0
  3 35  1  0  0  0  0
  4  6  1  0  0  0  0
  4  7  1  0  0  0  0
  4 10  1  0  0  0  0
  5  8  1  0  0  0  0
  5  9  1  0  0  0  0
  5 13  1  0  0  0  0
  6  8  1  0  0  0  0
  6 36  1  0  0  0  0
  6 37  1  0  0  0  0
  7  9  1  0  0  0  0
  7 38  1  0  0  0  0
  7 39  1  0  0  0  0
  8 40  1  0  0  0  0
  8 41  1  0  0  0  0
  9 42  1  0  0  0  0
  9 43  1  0  0  0  0
 10 11  1  0  0  0  0
 10 44  1  0  0  0  0
 10 45  1  0  0  0  0
 11 12  1  0  0  0  0
 11 46  1  0  0  0  0
 11 47  1  0  0  0  0
 12 14  1  0  0  0  0
 12 48  1  0  0  0  0
 12 49  1  0  0  0  0
 13 16  2  0  0  0  0
 13 17  1  0  0  0  0
 14 15  1  0  0  0  0
 14 50  1  0  0  0  0
 14 51  1  0  0  0  0
 15 52  1  0  0  0  0
 15 53  1  0  0  0  0
 16 18  1  0  0  0  0
 16 54  1  0  0  0  0
 17 19  2  0  0  0  0
 17 55  1  0  0  0  0
 18 20  2  0  0  0  0
 18 56  1  0  0  0  0
 19 20  1  0  0  0  0
 19 57  1  0  0  0  0
 21 22  1  0  0  0  0
 21 25  2  0  0  0  0
 22 23  1  0  0  0  0
 22 26  2  0  0  0  0
 23 24  1  0  0  0  0
 23 58  1  0  0  0  0
 23 59  1  0  0  0  0
 24 27  1  0  0  0  0
 24 60  1  0  0  0  0
 24 61  1  0  0  0  0
 25 28  1  0  0  0  0
 25 62  1  0  0  0  0
 26 29  1  0  0  0  0
 26 63  1  0  0  0  0
 27 30  2  0  0  0  0
 27 31  1  0  0  0  0
 28 29  2  0  0  0  0
 28 64  1  0  0  0  0
 29 65  1  0  0  0  0
 30 32  1  0  0  0  0
 30 66  1  0  0  0  0
 31 33  2  0  0  0  0
 31 67  1  0  0  0  0
 32 34  2  0  0  0  0
 33 34  1  0  0  0  0
 33 68  1  0  0  0  0
 34 69  1  0  0  0  0
 35 70  1  0  0  0  0
 35 71  1  0  0  0  0
 35 72  1  0  0  0  0
M  END
> <PUBCHEM_COMPOUND_CID>
25156411

> <PUBCHEM_CONFORMER_RMSD>
1.8

> <PUBCHEM_CONFORMER_DIVERSEORDER>
1
76
70
20
77
24
80
30
41
43
66
33
63
9
75
38
40
48
29
65
81
68
82
74
56
55
23
10
49
57
31
11
35
7
12
44
18
58
62
27
5
13
6
71
54
3
50
72
36
47
25
51
4
34
22
26
16
53
79
28
17
52
2
21
15
60
45
69
67
39
59
8
78
14
73
61
42
32
46
37
64
19

> <PUBCHEM_MMFF94_PARTIAL_CHARGES>
44
1 -0.19
10 0.27
13 0.1
15 0.28
16 -0.15
17 -0.15
18 -0.15
19 -0.15
2 -0.36
20 0.19
21 0.08
22 -0.14
23 0.14
24 0.14
25 -0.15
26 -0.15
27 -0.14
28 -0.15
29 -0.15
3 -0.36
30 -0.15
31 -0.15
32 0.08
33 -0.15
34 -0.15
35 0.28
4 -0.81
5 -0.84
54 0.15
55 0.15
56 0.15
57 0.15
6 0.27
62 0.15
63 0.15
64 0.15
65 0.15
66 0.15
67 0.15
68 0.15
69 0.15
7 0.27
8 0.37
9 0.37

> <PUBCHEM_EFFECTIVE_ROTOR_COUNT>
13.2

> <PUBCHEM_PHARMACOPHORE_FEATURES>
8
1 2 acceptor
1 3 acceptor
1 4 cation
1 5 cation
6 13 16 17 18 19 20 rings
6 21 22 25 26 28 29 rings
6 27 30 31 32 33 34 rings
6 4 5 6 7 8 9 rings

> <PUBCHEM_HEAVY_ATOM_COUNT>
35

> <PUBCHEM_ATOM_DEF_STEREO_COUNT>
0

> <PUBCHEM_ATOM_UDEF_STEREO_COUNT>
0

> <PUBCHEM_BOND_DEF_STEREO_COUNT>
0

> <PUBCHEM_BOND_UDEF_STEREO_COUNT>
0

> <PUBCHEM_ISOTOPIC_ATOM_COUNT>
0

> <PUBCHEM_COMPONENT_COUNT>
1

> <PUBCHEM_CACTVS_TAUTO_COUNT>
1

> <PUBCHEM_CONFORMER_ID>
017FDB3B00000001

> <PUBCHEM_MMFF94_ENERGY>
105.2236

> <PUBCHEM_FEATURE_SELFOVERLAP>
40.6

> <PUBCHEM_SHAPE_FINGERPRINT>
10675989 125 16830927916596436493
11135926 11 18117270570647309460
12156800 1 16271363157761147557
13165054 189 17622462545605226097
14117953 113 18267867168492210685
14725015 67 16174816789477782252
14840074 17 18272942626177825161
14950920 106 17822010895698385186
15001296 14 18268717292843879144
15297060 5 17274557506629889046
15351339 4 17765716114893199672
15403338 16 18040999509715413419
19319366 153 18044393844567504452
20764821 26 18058710516499435216
208703 8 18188208694238441682
21133410 62 18113894996217408348
25019877 29 17060334106966438503
392239 28 18262529108691442803
44880168 125 17774443772666149518
463206 1 18338238266665620784
469060 322 18198039448744797327
50150288 127 17554084247299146336
5047190 2 18198344159394125207
6287921 2 17484263871497097617
9896288 288 17910114608446242664

> <PUBCHEM_SHAPE_MULTIPOLES>
691.31
13.27
5.22
2.76
3.29
4.48
-1.8
-5.47
7.68
2.87
-0.58
-2.43
-1.46
-3.46

> <PUBCHEM_SHAPE_SELFOVERLAP>
1455.506

> <PUBCHEM_SHAPE_VOLUME>
390.4

> <PUBCHEM_COORDINATE_TYPE>
2
5
10

$$$$