25156414
  -OEChem-03242010103D

 59 61  0     0  0  0  0  0  0999 V2000
    1.4549    2.0542   -0.4756 O   0  0  0  0  0  0  0  0  0  0  0  0
   -1.2734   -2.9183    0.2243 O   0  0  0  0  0  0  0  0  0  0  0  0
   -3.1582    0.7667    0.2668 N   0  0  0  0  0  0  0  0  0  0  0  0
   -6.0361    0.8090   -0.0058 N   0  0  0  0  0  0  0  0  0  0  0  0
   -4.0214    0.0080    1.1802 C   0  0  0  0  0  0  0  0  0  0  0  0
   -3.8594    1.9568   -0.2301 C   0  0  0  0  0  0  0  0  0  0  0  0
   -5.3351   -0.3804    0.4931 C   0  0  0  0  0  0  0  0  0  0  0  0
   -5.1725    1.5682   -0.9184 C   0  0  0  0  0  0  0  0  0  0  0  0
   -1.9066    1.1380    0.9238 C   0  0  0  0  0  0  0  0  0  0  0  0
   -0.8307    1.4350   -0.1159 C   0  0  0  0  0  0  0  0  0  0  0  0
   -7.2867    0.4365   -0.6642 C   0  0  0  0  0  0  0  0  0  0  0  0
    0.4929    1.8045    0.5399 C   0  0  0  0  0  0  0  0  0  0  0  0
    2.7647    1.7975   -0.1635 C   0  0  0  0  0  0  0  0  0  0  0  0
    3.5020    0.8644   -0.8924 C   0  0  0  0  0  0  0  0  0  0  0  0
    2.8824    0.1241   -2.0312 C   0  0  0  0  0  0  0  0  0  0  0  0
    2.8966   -1.4077   -1.8646 C   0  0  0  0  0  0  0  0  0  0  0  0
    3.3592    2.4809    0.8973 C   0  0  0  0  0  0  0  0  0  0  0  0
    4.8336    0.6147   -0.5604 C   0  0  0  0  0  0  0  0  0  0  0  0
    2.1222   -1.8822   -0.6591 C   0  0  0  0  0  0  0  0  0  0  0  0
    4.6907    2.2313    1.2291 C   0  0  0  0  0  0  0  0  0  0  0  0
    5.4280    1.2980    0.5003 C   0  0  0  0  0  0  0  0  0  0  0  0
    0.7654   -2.1841   -0.7760 C   0  0  0  0  0  0  0  0  0  0  0  0
    2.7636   -2.0189    0.5719 C   0  0  0  0  0  0  0  0  0  0  0  0
    0.0502   -2.6229    0.3382 C   0  0  0  0  0  0  0  0  0  0  0  0
    2.0484   -2.4575    1.6863 C   0  0  0  0  0  0  0  0  0  0  0  0
    0.6916   -2.7595    1.5693 C   0  0  0  0  0  0  0  0  0  0  0  0
   -1.8665   -2.7563   -1.0633 C   0  0  0  0  0  0  0  0  0  0  0  0
   -4.2347    0.5878    2.0885 H   0  0  0  0  0  0  0  0  0  0  0  0
   -3.5153   -0.9140    1.4917 H   0  0  0  0  0  0  0  0  0  0  0  0
   -3.2517    2.4916   -0.9674 H   0  0  0  0  0  0  0  0  0  0  0  0
   -4.0701    2.6588    0.5883 H   0  0  0  0  0  0  0  0  0  0  0  0
   -5.1291   -1.0853   -0.3239 H   0  0  0  0  0  0  0  0  0  0  0  0
   -5.9648   -0.9027    1.2236 H   0  0  0  0  0  0  0  0  0  0  0  0
   -5.6828    2.4871   -1.2319 H   0  0  0  0  0  0  0  0  0  0  0  0
   -4.9559    0.9885   -1.8262 H   0  0  0  0  0  0  0  0  0  0  0  0
   -2.0414    1.9853    1.6083 H   0  0  0  0  0  0  0  0  0  0  0  0
   -1.5442    0.2989    1.5327 H   0  0  0  0  0  0  0  0  0  0  0  0
   -0.6808    0.5687   -0.7721 H   0  0  0  0  0  0  0  0  0  0  0  0
   -1.1216    2.2592   -0.7769 H   0  0  0  0  0  0  0  0  0  0  0  0
   -7.1213   -0.2082   -1.5350 H   0  0  0  0  0  0  0  0  0  0  0  0
   -7.8280    1.3299   -0.9945 H   0  0  0  0  0  0  0  0  0  0  0  0
   -7.9465   -0.0903    0.0342 H   0  0  0  0  0  0  0  0  0  0  0  0
    0.8197    0.9853    1.1935 H   0  0  0  0  0  0  0  0  0  0  0  0
    0.3739    2.7097    1.1462 H   0  0  0  0  0  0  0  0  0  0  0  0
    1.8490    0.4455   -2.2076 H   0  0  0  0  0  0  0  0  0  0  0  0
    3.4293    0.3837   -2.9471 H   0  0  0  0  0  0  0  0  0  0  0  0
    3.9244   -1.7882   -1.8088 H   0  0  0  0  0  0  0  0  0  0  0  0
    2.4727   -1.8648   -2.7685 H   0  0  0  0  0  0  0  0  0  0  0  0
    2.8004    3.2167    1.4690 H   0  0  0  0  0  0  0  0  0  0  0  0
    5.4279   -0.0995   -1.1238 H   0  0  0  0  0  0  0  0  0  0  0  0
    5.1543    2.7651    2.0535 H   0  0  0  0  0  0  0  0  0  0  0  0
    6.4657    1.1059    0.7570 H   0  0  0  0  0  0  0  0  0  0  0  0
    0.3168   -2.0564   -1.7556 H   0  0  0  0  0  0  0  0  0  0  0  0
    3.8229   -1.8061    0.6794 H   0  0  0  0  0  0  0  0  0  0  0  0
    2.5486   -2.5672    2.6440 H   0  0  0  0  0  0  0  0  0  0  0  0
    0.1396   -3.1010    2.4407 H   0  0  0  0  0  0  0  0  0  0  0  0
   -2.9223   -3.0307   -0.9687 H   0  0  0  0  0  0  0  0  0  0  0  0
   -1.4237   -3.4363   -1.7989 H   0  0  0  0  0  0  0  0  0  0  0  0
   -1.8381   -1.7124   -1.3928 H   0  0  0  0  0  0  0  0  0  0  0  0
  1 12  1  0  0  0  0
  1 13  1  0  0  0  0
  2 24  1  0  0  0  0
  2 27  1  0  0  0  0
  3  5  1  0  0  0  0
  3  6  1  0  0  0  0
  3  9  1  0  0  0  0
  4  7  1  0  0  0  0
  4  8  1  0  0  0  0
  4 11  1  0  0  0  0
  5  7  1  0  0  0  0
  5 28  1  0  0  0  0
  5 29  1  0  0  0  0
  6  8  1  0  0  0  0
  6 30  1  0  0  0  0
  6 31  1  0  0  0  0
  7 32  1  0  0  0  0
  7 33  1  0  0  0  0
  8 34  1  0  0  0  0
  8 35  1  0  0  0  0
  9 10  1  0  0  0  0
  9 36  1  0  0  0  0
  9 37  1  0  0  0  0
 10 12  1  0  0  0  0
 10 38  1  0  0  0  0
 10 39  1  0  0  0  0
 11 40  1  0  0  0  0
 11 41  1  0  0  0  0
 11 42  1  0  0  0  0
 12 43  1  0  0  0  0
 12 44  1  0  0  0  0
 13 14  1  0  0  0  0
 13 17  2  0  0  0  0
 14 15  1  0  0  0  0
 14 18  2  0  0  0  0
 15 16  1  0  0  0  0
 15 45  1  0  0  0  0
 15 46  1  0  0  0  0
 16 19  1  0  0  0  0
 16 47  1  0  0  0  0
 16 48  1  0  0  0  0
 17 20  1  0  0  0  0
 17 49  1  0  0  0  0
 18 21  1  0  0  0  0
 18 50  1  0  0  0  0
 19 22  2  0  0  0  0
 19 23  1  0  0  0  0
 20 21  2  0  0  0  0
 20 51  1  0  0  0  0
 21 52  1  0  0  0  0
 22 24  1  0  0  0  0
 22 53  1  0  0  0  0
 23 25  2  0  0  0  0
 23 54  1  0  0  0  0
 24 26  2  0  0  0  0
 25 26  1  0  0  0  0
 25 55  1  0  0  0  0
 26 56  1  0  0  0  0
 27 57  1  0  0  0  0
 27 58  1  0  0  0  0
 27 59  1  0  0  0  0
M  END
> <PUBCHEM_COMPOUND_CID>
25156414

> <PUBCHEM_CONFORMER_RMSD>
1.4

> <PUBCHEM_CONFORMER_DIVERSEORDER>
1
58
64
60
107
35
44
109
69
10
52
9
78
71
100
46
75
126
53
13
131
119
121
43
89
66
123
54
127
36
116
40
120
130
114
90
88
112
102
6
73
124
94
92
118
56
61
11
15
76
63
85
39
23
4
51
49
48
7
37
117
110
128
115
27
70
62
59
95
38
74
31
22
17
67
104
79
20
111
83
93
91
86
122
25
47
45
21
82
68
42
72
129
34
99
84
24
106
12
133
16
5
77
81
125
55
108
29
80
28
105
97
57
50
8
14
32
41
2
33
65
30
87
113
26
18
3
132
101
19
98
96
103

> <PUBCHEM_MMFF94_PARTIAL_CHARGES>
34
1 -0.36
11 0.27
12 0.28
13 0.08
14 -0.14
15 0.14
16 0.14
17 -0.15
18 -0.15
19 -0.14
2 -0.36
20 -0.15
21 -0.15
22 -0.15
23 -0.15
24 0.08
25 -0.15
26 -0.15
27 0.28
3 -0.81
4 -0.81
49 0.15
5 0.27
50 0.15
51 0.15
52 0.15
53 0.15
54 0.15
55 0.15
56 0.15
6 0.27
7 0.27
8 0.27
9 0.27

> <PUBCHEM_EFFECTIVE_ROTOR_COUNT>
10.2

> <PUBCHEM_PHARMACOPHORE_FEATURES>
7
1 1 acceptor
1 2 acceptor
1 3 cation
1 4 cation
6 13 14 17 18 20 21 rings
6 19 22 23 24 25 26 rings
6 3 4 5 6 7 8 rings

> <PUBCHEM_HEAVY_ATOM_COUNT>
27

> <PUBCHEM_ATOM_DEF_STEREO_COUNT>
0

> <PUBCHEM_ATOM_UDEF_STEREO_COUNT>
0

> <PUBCHEM_BOND_DEF_STEREO_COUNT>
0

> <PUBCHEM_BOND_UDEF_STEREO_COUNT>
0

> <PUBCHEM_ISOTOPIC_ATOM_COUNT>
0

> <PUBCHEM_COMPONENT_COUNT>
1

> <PUBCHEM_CACTVS_TAUTO_COUNT>
1

> <PUBCHEM_CONFORMER_ID>
017FDB3E00000001

> <PUBCHEM_MMFF94_ENERGY>
76.2267

> <PUBCHEM_FEATURE_SELFOVERLAP>
35.524

> <PUBCHEM_SHAPE_FINGERPRINT>
10816530 23 17059770164806557484
11421498 54 14548471180450581652
11578080 2 16127512943255628698
12156800 1 16770378700323780334
12778500 126 13840260373290635645
13402501 40 18411422829640217776
14251764 38 18052535766535318380
146900 427 18340778039904514113
15183329 4 18271242704594076589
17093844 170 18411422842994689528
17492 54 18264228953272117966
20567600 254 18408885152787677932
20567600 347 18187085035755595992
20775438 99 18202274810390153887
21197605 99 18126851718501481143
21304304 249 18335135350836990634
22393880 68 18265904549021614117
23558518 356 17833547169122737037
23559900 14 17677341489469066739
238 59 18264788596195498016
239999 70 18273219690186563532
3052486 1 18117004471351999668
3298306 158 18334577966644330681
338550 245 18261396705713230388
4093350 32 17489598827154745303
4340502 62 18413387648308072069
469060 322 17604702412931498735
508706 21 18189908689043174195
513532 50 17489297586284923130
59755656 215 18411420609131621812
6669772 16 18413670214802522710

> <PUBCHEM_SHAPE_MULTIPOLES>
533.95
13.14
3.8
1.51
19.93
2.13
-0.17
-8.29
-1.04
-2.04
0.76
-1.06
0.57
0.72

> <PUBCHEM_SHAPE_SELFOVERLAP>
1108.97

> <PUBCHEM_SHAPE_VOLUME>
305.6

> <PUBCHEM_COORDINATE_TYPE>
2
5
10

$$$$