25155851
  -OEChem-03242010103D

 72 75  0     0  0  0  0  0  0999 V2000
   -4.5756   -2.2370    3.1818 Cl  0  0  0  0  0  0  0  0  0  0  0  0
    4.1243    0.2948   -0.7554 O   0  0  0  0  0  0  0  0  0  0  0  0
   -1.8270   -0.8323   -3.6095 O   0  0  0  0  0  0  0  0  0  0  0  0
    0.0127    3.1503    0.3631 N   0  0  0  0  0  0  0  0  0  0  0  0
   -2.4220    1.6972    0.7089 N   0  0  0  0  0  0  0  0  0  0  0  0
   -0.9475    3.0354   -0.7412 C   0  0  0  0  0  0  0  0  0  0  0  0
   -0.7028    3.1950    1.6444 C   0  0  0  0  0  0  0  0  0  0  0  0
   -1.7866    1.7618   -0.6107 C   0  0  0  0  0  0  0  0  0  0  0  0
   -1.5325    1.9262    1.8544 C   0  0  0  0  0  0  0  0  0  0  0  0
    0.8442    4.3420    0.1983 C   0  0  0  0  0  0  0  0  0  0  0  0
    1.9827    4.0633   -0.7816 C   0  0  0  0  0  0  0  0  0  0  0  0
    2.8627    2.9099   -0.2935 C   0  0  0  0  0  0  0  0  0  0  0  0
   -3.5435    0.8824    0.9000 C   0  0  0  0  0  0  0  0  0  0  0  0
    4.0253    2.6518   -1.2566 C   0  0  0  0  0  0  0  0  0  0  0  0
    4.8970    1.4853   -0.8081 C   0  0  0  0  0  0  0  0  0  0  0  0
   -3.5046   -0.1506    1.8366 C   0  0  0  0  0  0  0  0  0  0  0  0
   -4.7013    1.1044    0.1544 C   0  0  0  0  0  0  0  0  0  0  0  0
   -4.6234   -0.9613    2.0276 C   0  0  0  0  0  0  0  0  0  0  0  0
   -5.8201    0.2937    0.3453 C   0  0  0  0  0  0  0  0  0  0  0  0
   -5.7811   -0.7392    1.2819 C   0  0  0  0  0  0  0  0  0  0  0  0
    4.4969   -0.6447    0.1711 C   0  0  0  0  0  0  0  0  0  0  0  0
    3.5513   -1.4944    0.7451 C   0  0  0  0  0  0  0  0  0  0  0  0
    2.1110   -1.4021    0.3630 C   0  0  0  0  0  0  0  0  0  0  0  0
    1.6412   -2.5225   -0.5848 C   0  0  0  0  0  0  0  0  0  0  0  0
    5.8387   -0.7448    0.5387 C   0  0  0  0  0  0  0  0  0  0  0  0
    3.9476   -2.4440    1.6869 C   0  0  0  0  0  0  0  0  0  0  0  0
    0.1926   -2.3921   -0.9879 C   0  0  0  0  0  0  0  0  0  0  0  0
    6.2348   -1.6943    1.4805 C   0  0  0  0  0  0  0  0  0  0  0  0
    5.2894   -2.5440    2.0547 C   0  0  0  0  0  0  0  0  0  0  0  0
   -0.1519   -1.6629   -2.1261 C   0  0  0  0  0  0  0  0  0  0  0  0
   -0.8017   -3.0009   -0.2223 C   0  0  0  0  0  0  0  0  0  0  0  0
   -1.4907   -1.5429   -2.4986 C   0  0  0  0  0  0  0  0  0  0  0  0
   -2.1405   -2.8808   -0.5947 C   0  0  0  0  0  0  0  0  0  0  0  0
   -2.4850   -2.1519   -1.7329 C   0  0  0  0  0  0  0  0  0  0  0  0
   -3.2144   -0.7507   -3.9328 C   0  0  0  0  0  0  0  0  0  0  0  0
   -0.4319    2.9910   -1.7065 H   0  0  0  0  0  0  0  0  0  0  0  0
   -1.6151    3.9074   -0.7685 H   0  0  0  0  0  0  0  0  0  0  0  0
   -1.3569    4.0762    1.6912 H   0  0  0  0  0  0  0  0  0  0  0  0
    0.0110    3.2724    2.4737 H   0  0  0  0  0  0  0  0  0  0  0  0
   -2.5284    1.7501   -1.4172 H   0  0  0  0  0  0  0  0  0  0  0  0
   -1.1464    0.8819   -0.7408 H   0  0  0  0  0  0  0  0  0  0  0  0
   -0.8591    1.0685    1.9824 H   0  0  0  0  0  0  0  0  0  0  0  0
   -2.1084    2.0517    2.7801 H   0  0  0  0  0  0  0  0  0  0  0  0
    0.2585    5.2103   -0.1292 H   0  0  0  0  0  0  0  0  0  0  0  0
    1.3028    4.6233    1.1558 H   0  0  0  0  0  0  0  0  0  0  0  0
    1.6000    3.8486   -1.7855 H   0  0  0  0  0  0  0  0  0  0  0  0
    2.5935    4.9702   -0.8716 H   0  0  0  0  0  0  0  0  0  0  0  0
    2.2654    1.9968   -0.2007 H   0  0  0  0  0  0  0  0  0  0  0  0
    3.2592    3.1408    0.7027 H   0  0  0  0  0  0  0  0  0  0  0  0
    4.6421    3.5532   -1.3479 H   0  0  0  0  0  0  0  0  0  0  0  0
    3.6157    2.4286   -2.2495 H   0  0  0  0  0  0  0  0  0  0  0  0
    5.7145    1.3484   -1.5252 H   0  0  0  0  0  0  0  0  0  0  0  0
    5.3181    1.7485    0.1711 H   0  0  0  0  0  0  0  0  0  0  0  0
   -2.6083   -0.3559    2.4161 H   0  0  0  0  0  0  0  0  0  0  0  0
   -4.7541    1.9111   -0.5722 H   0  0  0  0  0  0  0  0  0  0  0  0
   -6.7223    0.4679   -0.2338 H   0  0  0  0  0  0  0  0  0  0  0  0
   -6.6605   -1.3630    1.4200 H   0  0  0  0  0  0  0  0  0  0  0  0
    1.5041   -1.4229    1.2793 H   0  0  0  0  0  0  0  0  0  0  0  0
    1.8867   -0.4275   -0.0874 H   0  0  0  0  0  0  0  0  0  0  0  0
    1.7981   -3.5039   -0.1179 H   0  0  0  0  0  0  0  0  0  0  0  0
    2.2671   -2.5301   -1.4875 H   0  0  0  0  0  0  0  0  0  0  0  0
    6.6131   -0.1263    0.0951 H   0  0  0  0  0  0  0  0  0  0  0  0
    3.2208   -3.1118    2.1420 H   0  0  0  0  0  0  0  0  0  0  0  0
    7.2806   -1.7775    1.7619 H   0  0  0  0  0  0  0  0  0  0  0  0
    5.5982   -3.2843    2.7868 H   0  0  0  0  0  0  0  0  0  0  0  0
    0.6184   -1.1834   -2.7250 H   0  0  0  0  0  0  0  0  0  0  0  0
   -0.5458   -3.5689    0.6682 H   0  0  0  0  0  0  0  0  0  0  0  0
   -2.9142   -3.3537    0.0033 H   0  0  0  0  0  0  0  0  0  0  0  0
   -3.5436   -2.0969   -1.9628 H   0  0  0  0  0  0  0  0  0  0  0  0
   -3.2992   -0.1491   -4.8438 H   0  0  0  0  0  0  0  0  0  0  0  0
   -3.7789   -0.2295   -3.1520 H   0  0  0  0  0  0  0  0  0  0  0  0
   -3.6335   -1.7367   -4.1602 H   0  0  0  0  0  0  0  0  0  0  0  0
  1 18  1  0  0  0  0
  2 15  1  0  0  0  0
  2 21  1  0  0  0  0
  3 32  1  0  0  0  0
  3 35  1  0  0  0  0
  4  6  1  0  0  0  0
  4  7  1  0  0  0  0
  4 10  1  0  0  0  0
  5  8  1  0  0  0  0
  5  9  1  0  0  0  0
  5 13  1  0  0  0  0
  6  8  1  0  0  0  0
  6 36  1  0  0  0  0
  6 37  1  0  0  0  0
  7  9  1  0  0  0  0
  7 38  1  0  0  0  0
  7 39  1  0  0  0  0
  8 40  1  0  0  0  0
  8 41  1  0  0  0  0
  9 42  1  0  0  0  0
  9 43  1  0  0  0  0
 10 11  1  0  0  0  0
 10 44  1  0  0  0  0
 10 45  1  0  0  0  0
 11 12  1  0  0  0  0
 11 46  1  0  0  0  0
 11 47  1  0  0  0  0
 12 14  1  0  0  0  0
 12 48  1  0  0  0  0
 12 49  1  0  0  0  0
 13 16  2  0  0  0  0
 13 17  1  0  0  0  0
 14 15  1  0  0  0  0
 14 50  1  0  0  0  0
 14 51  1  0  0  0  0
 15 52  1  0  0  0  0
 15 53  1  0  0  0  0
 16 18  1  0  0  0  0
 16 54  1  0  0  0  0
 17 19  2  0  0  0  0
 17 55  1  0  0  0  0
 18 20  2  0  0  0  0
 19 20  1  0  0  0  0
 19 56  1  0  0  0  0
 20 57  1  0  0  0  0
 21 22  1  0  0  0  0
 21 25  2  0  0  0  0
 22 23  1  0  0  0  0
 22 26  2  0  0  0  0
 23 24  1  0  0  0  0
 23 58  1  0  0  0  0
 23 59  1  0  0  0  0
 24 27  1  0  0  0  0
 24 60  1  0  0  0  0
 24 61  1  0  0  0  0
 25 28  1  0  0  0  0
 25 62  1  0  0  0  0
 26 29  1  0  0  0  0
 26 63  1  0  0  0  0
 27 30  2  0  0  0  0
 27 31  1  0  0  0  0
 28 29  2  0  0  0  0
 28 64  1  0  0  0  0
 29 65  1  0  0  0  0
 30 32  1  0  0  0  0
 30 66  1  0  0  0  0
 31 33  2  0  0  0  0
 31 67  1  0  0  0  0
 32 34  2  0  0  0  0
 33 34  1  0  0  0  0
 33 68  1  0  0  0  0
 34 69  1  0  0  0  0
 35 70  1  0  0  0  0
 35 71  1  0  0  0  0
 35 72  1  0  0  0  0
M  END
> <PUBCHEM_COMPOUND_CID>
25155851

> <PUBCHEM_CONFORMER_RMSD>
1.8

> <PUBCHEM_CONFORMER_DIVERSEORDER>
1
43
95
74
84
98
13
47
86
58
56
76
27
8
18
10
60
75
24
32
12
7
93
63
41
20
52
30
59
15
11
37
38
26
82
72
3
64
96
46
51
68
44
88
28
23
54
36
85
57
73
40
29
50
97
4
81
31
90
79
61
100
78
19
35
77
65
42
91
5
6
25
71
66
99
94
49
92
39
62
70
87
101
55
17
33
34
14
45
2
80
48
67
9
69
22
83
53
16
89
21

> <PUBCHEM_MMFF94_PARTIAL_CHARGES>
44
1 -0.18
10 0.27
13 0.1
15 0.28
16 -0.15
17 -0.15
18 0.18
19 -0.15
2 -0.36
20 -0.15
21 0.08
22 -0.14
23 0.14
24 0.14
25 -0.15
26 -0.15
27 -0.14
28 -0.15
29 -0.15
3 -0.36
30 -0.15
31 -0.15
32 0.08
33 -0.15
34 -0.15
35 0.28
4 -0.81
5 -0.84
54 0.15
55 0.15
56 0.15
57 0.15
6 0.27
62 0.15
63 0.15
64 0.15
65 0.15
66 0.15
67 0.15
68 0.15
69 0.15
7 0.27
8 0.37
9 0.37

> <PUBCHEM_EFFECTIVE_ROTOR_COUNT>
13.2

> <PUBCHEM_PHARMACOPHORE_FEATURES>
8
1 2 acceptor
1 3 acceptor
1 4 cation
1 5 cation
6 13 16 17 18 19 20 rings
6 21 22 25 26 28 29 rings
6 27 30 31 32 33 34 rings
6 4 5 6 7 8 9 rings

> <PUBCHEM_HEAVY_ATOM_COUNT>
35

> <PUBCHEM_ATOM_DEF_STEREO_COUNT>
0

> <PUBCHEM_ATOM_UDEF_STEREO_COUNT>
0

> <PUBCHEM_BOND_DEF_STEREO_COUNT>
0

> <PUBCHEM_BOND_UDEF_STEREO_COUNT>
0

> <PUBCHEM_ISOTOPIC_ATOM_COUNT>
0

> <PUBCHEM_COMPONENT_COUNT>
1

> <PUBCHEM_CACTVS_TAUTO_COUNT>
1

> <PUBCHEM_CONFORMER_ID>
017FD90B00000001

> <PUBCHEM_MMFF94_ENERGY>
105.6463

> <PUBCHEM_FEATURE_SELFOVERLAP>
40.6

> <PUBCHEM_SHAPE_FINGERPRINT>
10675989 125 16759712548491765261
10816530 23 16270812328005748068
11135926 11 18190172589620670044
13165054 189 17622748427181413945
14117953 113 18196935478698316693
14840074 17 18202293506550889569
14950920 106 17894631435384204594
15001296 14 18269558406417600776
15297060 5 16844194352992449742
15351339 4 17766275762027319793
15403338 16 18113900424940194731
19319366 153 18045519757290768092
20764821 26 17987499550651813872
208703 8 18261393287715958458
25019877 29 16774070761474939583
392239 28 18334870389566798571
44880168 125 17702950228093205726
463206 1 18339080492546116992
469060 322 18199166448210753527
5047190 2 18127132094066531031
6287921 2 17413050706737035989
9896288 288 17838619960077305280

> <PUBCHEM_SHAPE_MULTIPOLES>
700.45
12.89
5.27
3.03
5.96
4.59
-1.9
-5.39
7.21
3.19
0.33
-3.66
-2.02
-2.41

> <PUBCHEM_SHAPE_SELFOVERLAP>
1463.502

> <PUBCHEM_SHAPE_VOLUME>
397.6

> <PUBCHEM_COORDINATE_TYPE>
2
5
10

$$$$