25156129
  -OEChem-03242010103D

 69 72  0     0  0  0  0  0  0999 V2000
    6.4537   -2.4320   -0.3467 F   0  0  0  0  0  0  0  0  0  0  0  0
    4.8234   -2.5373    1.0799 F   0  0  0  0  0  0  0  0  0  0  0  0
    4.4078   -2.6456   -1.0519 F   0  0  0  0  0  0  0  0  0  0  0  0
   -4.2988    1.8396    0.2105 O   0  0  0  0  0  0  0  0  0  0  0  0
   -0.0563   -2.1613   -1.4538 O   0  0  0  0  0  0  0  0  0  0  0  0
   -0.2651    3.0830    0.4047 N   0  0  0  0  0  0  0  0  0  0  0  0
    2.3830    2.0381    0.1694 N   0  0  0  0  0  0  0  0  0  0  0  0
    0.3616    2.3851    1.5338 C   0  0  0  0  0  0  0  0  0  0  0  0
    0.7549    3.8109   -0.3606 C   0  0  0  0  0  0  0  0  0  0  0  0
    1.4097    1.3811    1.0470 C   0  0  0  0  0  0  0  0  0  0  0  0
    1.8150    2.8542   -0.9111 C   0  0  0  0  0  0  0  0  0  0  0  0
   -1.3012    3.9994    0.8792 C   0  0  0  0  0  0  0  0  0  0  0  0
   -2.5968    3.2404    1.1475 C   0  0  0  0  0  0  0  0  0  0  0  0
    3.6364    1.4518   -0.0389 C   0  0  0  0  0  0  0  0  0  0  0  0
   -3.1027    2.5385   -0.1056 C   0  0  0  0  0  0  0  0  0  0  0  0
    3.7762    0.0652    0.0186 C   0  0  0  0  0  0  0  0  0  0  0  0
    4.7464    2.2544   -0.3023 C   0  0  0  0  0  0  0  0  0  0  0  0
    5.0262   -0.5188   -0.1871 C   0  0  0  0  0  0  0  0  0  0  0  0
    5.9963    1.6704   -0.5081 C   0  0  0  0  0  0  0  0  0  0  0  0
    6.1362    0.2838   -0.4504 C   0  0  0  0  0  0  0  0  0  0  0  0
   -4.5676    0.7115   -0.5204 C   0  0  0  0  0  0  0  0  0  0  0  0
   -4.6948   -0.5293    0.1039 C   0  0  0  0  0  0  0  0  0  0  0  0
   -4.5427   -0.6580    1.5836 C   0  0  0  0  0  0  0  0  0  0  0  0
    5.1762   -2.0013   -0.1259 C   0  0  0  0  0  0  0  0  0  0  0  0
   -3.0824   -0.5954    2.0712 C   0  0  0  0  0  0  0  0  0  0  0  0
   -4.7135    0.8143   -1.9038 C   0  0  0  0  0  0  0  0  0  0  0  0
   -4.9675   -1.6673   -0.6552 C   0  0  0  0  0  0  0  0  0  0  0  0
   -2.2062   -1.6640    1.4641 C   0  0  0  0  0  0  0  0  0  0  0  0
   -4.9861   -0.3237   -2.6628 C   0  0  0  0  0  0  0  0  0  0  0  0
   -5.1132   -1.5645   -2.0386 C   0  0  0  0  0  0  0  0  0  0  0  0
   -1.5283   -1.4158    0.2707 C   0  0  0  0  0  0  0  0  0  0  0  0
   -2.0745   -2.9000    2.0970 C   0  0  0  0  0  0  0  0  0  0  0  0
   -0.7185   -2.4035   -0.2898 C   0  0  0  0  0  0  0  0  0  0  0  0
   -1.2647   -3.8879    1.5365 C   0  0  0  0  0  0  0  0  0  0  0  0
   -0.5867   -3.6395    0.3431 C   0  0  0  0  0  0  0  0  0  0  0  0
   -0.2356   -0.8763   -2.0478 C   0  0  0  0  0  0  0  0  0  0  0  0
    0.8367    3.1020    2.2175 H   0  0  0  0  0  0  0  0  0  0  0  0
   -0.3826    1.8291    2.1141 H   0  0  0  0  0  0  0  0  0  0  0  0
    0.2922    4.3263   -1.2111 H   0  0  0  0  0  0  0  0  0  0  0  0
    1.2359    4.5753    0.2646 H   0  0  0  0  0  0  0  0  0  0  0  0
    1.9096    0.9643    1.9306 H   0  0  0  0  0  0  0  0  0  0  0  0
    0.9179    0.5564    0.5236 H   0  0  0  0  0  0  0  0  0  0  0  0
    1.3715    2.1938   -1.6672 H   0  0  0  0  0  0  0  0  0  0  0  0
    2.5824    3.4517   -1.4163 H   0  0  0  0  0  0  0  0  0  0  0  0
   -0.9853    4.5513    1.7735 H   0  0  0  0  0  0  0  0  0  0  0  0
   -1.5221    4.7551    0.1135 H   0  0  0  0  0  0  0  0  0  0  0  0
   -2.4857    2.5346    1.9754 H   0  0  0  0  0  0  0  0  0  0  0  0
   -3.3628    3.9499    1.4864 H   0  0  0  0  0  0  0  0  0  0  0  0
   -2.3489    1.8419   -0.4901 H   0  0  0  0  0  0  0  0  0  0  0  0
   -3.3219    3.2758   -0.8866 H   0  0  0  0  0  0  0  0  0  0  0  0
    2.9247   -0.5836    0.2073 H   0  0  0  0  0  0  0  0  0  0  0  0
    4.6613    3.3374   -0.3366 H   0  0  0  0  0  0  0  0  0  0  0  0
    6.8612    2.2956   -0.7098 H   0  0  0  0  0  0  0  0  0  0  0  0
    7.1180   -0.1523   -0.6126 H   0  0  0  0  0  0  0  0  0  0  0  0
   -5.1214    0.1318    2.0798 H   0  0  0  0  0  0  0  0  0  0  0  0
   -4.9940   -1.5998    1.9241 H   0  0  0  0  0  0  0  0  0  0  0  0
   -3.0665   -0.6889    3.1646 H   0  0  0  0  0  0  0  0  0  0  0  0
   -2.6417    0.3807    1.8572 H   0  0  0  0  0  0  0  0  0  0  0  0
   -4.6251    1.7750   -2.4035 H   0  0  0  0  0  0  0  0  0  0  0  0
   -5.0675   -2.6418   -0.1846 H   0  0  0  0  0  0  0  0  0  0  0  0
   -5.1009   -0.2436   -3.7398 H   0  0  0  0  0  0  0  0  0  0  0  0
   -5.3248   -2.4506   -2.6298 H   0  0  0  0  0  0  0  0  0  0  0  0
   -1.6534   -0.4362   -0.1753 H   0  0  0  0  0  0  0  0  0  0  0  0
   -2.5994   -3.1059    3.0260 H   0  0  0  0  0  0  0  0  0  0  0  0
   -1.1625   -4.8505    2.0290 H   0  0  0  0  0  0  0  0  0  0  0  0
    0.0430   -4.4127   -0.0886 H   0  0  0  0  0  0  0  0  0  0  0  0
    0.3604   -0.8608   -2.9662 H   0  0  0  0  0  0  0  0  0  0  0  0
    0.1434   -0.0736   -1.4125 H   0  0  0  0  0  0  0  0  0  0  0  0
   -1.2778   -0.7123   -2.3428 H   0  0  0  0  0  0  0  0  0  0  0  0
  1 24  1  0  0  0  0
  2 24  1  0  0  0  0
  3 24  1  0  0  0  0
  4 15  1  0  0  0  0
  4 21  1  0  0  0  0
  5 33  1  0  0  0  0
  5 36  1  0  0  0  0
  6  8  1  0  0  0  0
  6  9  1  0  0  0  0
  6 12  1  0  0  0  0
  7 10  1  0  0  0  0
  7 11  1  0  0  0  0
  7 14  1  0  0  0  0
  8 10  1  0  0  0  0
  8 37  1  0  0  0  0
  8 38  1  0  0  0  0
  9 11  1  0  0  0  0
  9 39  1  0  0  0  0
  9 40  1  0  0  0  0
 10 41  1  0  0  0  0
 10 42  1  0  0  0  0
 11 43  1  0  0  0  0
 11 44  1  0  0  0  0
 12 13  1  0  0  0  0
 12 45  1  0  0  0  0
 12 46  1  0  0  0  0
 13 15  1  0  0  0  0
 13 47  1  0  0  0  0
 13 48  1  0  0  0  0
 14 16  1  0  0  0  0
 14 17  2  0  0  0  0
 15 49  1  0  0  0  0
 15 50  1  0  0  0  0
 16 18  2  0  0  0  0
 16 51  1  0  0  0  0
 17 19  1  0  0  0  0
 17 52  1  0  0  0  0
 18 20  1  0  0  0  0
 18 24  1  0  0  0  0
 19 20  2  0  0  0  0
 19 53  1  0  0  0  0
 20 54  1  0  0  0  0
 21 22  1  0  0  0  0
 21 26  2  0  0  0  0
 22 23  1  0  0  0  0
 22 27  2  0  0  0  0
 23 25  1  0  0  0  0
 23 55  1  0  0  0  0
 23 56  1  0  0  0  0
 25 28  1  0  0  0  0
 25 57  1  0  0  0  0
 25 58  1  0  0  0  0
 26 29  1  0  0  0  0
 26 59  1  0  0  0  0
 27 30  1  0  0  0  0
 27 60  1  0  0  0  0
 28 31  2  0  0  0  0
 28 32  1  0  0  0  0
 29 30  2  0  0  0  0
 29 61  1  0  0  0  0
 30 62  1  0  0  0  0
 31 33  1  0  0  0  0
 31 63  1  0  0  0  0
 32 34  2  0  0  0  0
 32 64  1  0  0  0  0
 33 35  2  0  0  0  0
 34 35  1  0  0  0  0
 34 65  1  0  0  0  0
 35 66  1  0  0  0  0
 36 67  1  0  0  0  0
 36 68  1  0  0  0  0
 36 69  1  0  0  0  0
M  END
> <PUBCHEM_COMPOUND_CID>
25156129

> <PUBCHEM_CONFORMER_RMSD>
1.8

> <PUBCHEM_CONFORMER_DIVERSEORDER>
1
84
75
11
38
47
12
51
19
25
53
60
40
39
73
63
15
24
2
52
67
66
43
29
57
54
78
14
62
65
70
58
49
83
56
7
44
8
5
81
42
68
79
85
64
33
76
13
80
17
9
48
82
18
16
59
34
55
74
21
35
28
27
31
71
37
32
3
50
45
61
22
69
6
20
46
41
77
10
72
36
30
4
26
23

> <PUBCHEM_MMFF94_PARTIAL_CHARGES>
47
1 -0.34
10 0.37
11 0.37
12 0.27
14 0.1
15 0.28
16 -0.15
17 -0.15
18 -0.14
19 -0.15
2 -0.34
20 -0.15
21 0.08
22 -0.14
23 0.14
24 1.16
25 0.14
26 -0.15
27 -0.15
28 -0.14
29 -0.15
3 -0.34
30 -0.15
31 -0.15
32 -0.15
33 0.08
34 -0.15
35 -0.15
36 0.28
4 -0.36
5 -0.36
51 0.15
52 0.15
53 0.15
54 0.15
59 0.15
6 -0.81
60 0.15
61 0.15
62 0.15
63 0.15
64 0.15
65 0.15
66 0.15
7 -0.84
8 0.27
9 0.27

> <PUBCHEM_EFFECTIVE_ROTOR_COUNT>
12.2

> <PUBCHEM_PHARMACOPHORE_FEATURES>
8
1 4 acceptor
1 5 acceptor
1 6 cation
1 7 cation
6 14 16 17 18 19 20 rings
6 21 22 26 27 29 30 rings
6 28 31 32 33 34 35 rings
6 6 7 8 9 10 11 rings

> <PUBCHEM_HEAVY_ATOM_COUNT>
36

> <PUBCHEM_ATOM_DEF_STEREO_COUNT>
0

> <PUBCHEM_ATOM_UDEF_STEREO_COUNT>
0

> <PUBCHEM_BOND_DEF_STEREO_COUNT>
0

> <PUBCHEM_BOND_UDEF_STEREO_COUNT>
0

> <PUBCHEM_ISOTOPIC_ATOM_COUNT>
0

> <PUBCHEM_COMPONENT_COUNT>
1

> <PUBCHEM_CACTVS_TAUTO_COUNT>
1

> <PUBCHEM_CONFORMER_ID>
017FDA2100000001

> <PUBCHEM_MMFF94_ENERGY>
109.7375

> <PUBCHEM_FEATURE_SELFOVERLAP>
40.6

> <PUBCHEM_SHAPE_FINGERPRINT>
11513181 2 18057894554191356894
12128747 34 18261109737574068662
12422481 6 17417253121888445644
12788726 201 18342452617461950200
13165053 137 18202563947725728919
14040222 220 18264225758080356982
14251757 5 18262520415223876800
15183329 4 18412824711518919494
15274700 232 17046841746807125694
15351339 4 18261943094388777339
15968369 153 18201991136906248424
17349148 13 17060065907596092623
17627616 140 17899411982986942379
19315092 285 16485833904444352401
19958102 18 18260544515725054196
20764821 26 18266761133109649089
20775438 99 17120537003268057511
3383291 50 18338509858553221115
3729539 64 18338229488031581327
4015057 19 18339922726736342953
437795 96 18123746723729721576
45266715 3 17982420957856447985
6376802 137 17703789227768012537
66674814 147 18334574590620648724

> <PUBCHEM_SHAPE_MULTIPOLES>
697.34
14.08
5.35
1.96
14.04
0.74
-0.36
-3.48
-4.95
0.94
1.67
-3.11
-0.69
0.29

> <PUBCHEM_SHAPE_SELFOVERLAP>
1484.25

> <PUBCHEM_SHAPE_VOLUME>
390

> <PUBCHEM_COORDINATE_TYPE>
2
5
10

$$$$