193962
  -OEChem-03242010103D

 43 45  0     0  0  0  0  0  0999 V2000
    5.3545   -1.0526   -0.0325 Br  0  0  0  0  0  0  0  0  0  0  0  0
    2.3198   -1.6512   -0.0406 O   0  0  0  0  0  0  0  0  0  0  0  0
    0.6867    2.6994    0.0566 N   0  0  0  0  0  0  0  0  0  0  0  0
    1.5107    0.5030    0.0076 N   0  0  0  0  0  0  0  0  0  0  0  0
    3.0123    2.3874    0.0483 N   0  0  0  0  0  0  0  0  0  0  0  0
    5.3495    2.0670    0.0360 N   0  0  0  0  0  0  0  0  0  0  0  0
   -4.1619   -3.5158   -0.0683 N   0  0  0  0  0  0  0  0  0  0  0  0
   -6.0239    1.6568    0.0472 N   0  0  0  0  0  0  0  0  0  0  0  0
    0.9930   -2.0330   -0.0462 C   0  0  0  0  0  0  0  0  0  0  0  0
    0.3364   -2.1952   -1.2568 C   0  0  0  0  0  0  0  0  0  0  0  0
    0.3411   -2.2472    1.1586 C   0  0  0  0  0  0  0  0  0  0  0  0
   -1.0041   -2.5808   -1.2625 C   0  0  0  0  0  0  0  0  0  0  0  0
   -0.9994   -2.6330    1.1529 C   0  0  0  0  0  0  0  0  0  0  0  0
   -1.6719   -2.7997   -0.0577 C   0  0  0  0  0  0  0  0  0  0  0  0
    1.0345   -1.9654   -2.5567 C   0  0  0  0  0  0  0  0  0  0  0  0
    1.0442   -2.0735    2.4646 C   0  0  0  0  0  0  0  0  0  0  0  0
    2.5887   -0.3082   -0.0122 C   0  0  0  0  0  0  0  0  0  0  0  0
    1.7882    1.8221    0.0371 C   0  0  0  0  0  0  0  0  0  0  0  0
   -0.7071    2.4828    0.0540 C   0  0  0  0  0  0  0  0  0  0  0  0
    3.8912    0.1472   -0.0034 C   0  0  0  0  0  0  0  0  0  0  0  0
    4.0441    1.5184    0.0274 C   0  0  0  0  0  0  0  0  0  0  0  0
   -1.5581    3.4221   -0.5286 C   0  0  0  0  0  0  0  0  0  0  0  0
   -1.2345    1.3297    0.6351 C   0  0  0  0  0  0  0  0  0  0  0  0
   -2.9365    3.2081   -0.5300 C   0  0  0  0  0  0  0  0  0  0  0  0
   -2.6128    1.1157    0.6336 C   0  0  0  0  0  0  0  0  0  0  0  0
   -3.4638    2.0550    0.0511 C   0  0  0  0  0  0  0  0  0  0  0  0
   -3.0453   -3.1947   -0.0635 C   0  0  0  0  0  0  0  0  0  0  0  0
   -4.8758    1.8354    0.0489 C   0  0  0  0  0  0  0  0  0  0  0  0
   -1.5299   -2.7086   -2.2066 H   0  0  0  0  0  0  0  0  0  0  0  0
   -1.5217   -2.8010    2.0926 H   0  0  0  0  0  0  0  0  0  0  0  0
    0.4735   -2.3904   -3.3961 H   0  0  0  0  0  0  0  0  0  0  0  0
    1.1533   -0.8928   -2.7397 H   0  0  0  0  0  0  0  0  0  0  0  0
    2.0201   -2.4428   -2.5613 H   0  0  0  0  0  0  0  0  0  0  0  0
    0.4846   -2.5311    3.2877 H   0  0  0  0  0  0  0  0  0  0  0  0
    2.0282   -2.5537    2.4458 H   0  0  0  0  0  0  0  0  0  0  0  0
    1.1671   -1.0098    2.6917 H   0  0  0  0  0  0  0  0  0  0  0  0
    0.9595    3.6707   -0.0596 H   0  0  0  0  0  0  0  0  0  0  0  0
   -1.1594    4.3242   -0.9854 H   0  0  0  0  0  0  0  0  0  0  0  0
   -0.6142    0.6033    1.1464 H   0  0  0  0  0  0  0  0  0  0  0  0
   -3.5869    3.9493   -0.9883 H   0  0  0  0  0  0  0  0  0  0  0  0
   -3.0106    0.2183    1.1016 H   0  0  0  0  0  0  0  0  0  0  0  0
    6.0998    1.5139    0.4312 H   0  0  0  0  0  0  0  0  0  0  0  0
    5.4263    3.0760    0.0672 H   0  0  0  0  0  0  0  0  0  0  0  0
  1 20  1  0  0  0  0
  2  9  1  0  0  0  0
  2 17  1  0  0  0  0
  3 18  1  0  0  0  0
  3 19  1  0  0  0  0
  3 37  1  0  0  0  0
  4 17  2  0  0  0  0
  4 18  1  0  0  0  0
  5 18  2  0  0  0  0
  5 21  1  0  0  0  0
  6 21  1  0  0  0  0
  6 42  1  0  0  0  0
  6 43  1  0  0  0  0
  7 27  3  0  0  0  0
  8 28  3  0  0  0  0
  9 10  2  0  0  0  0
  9 11  1  0  0  0  0
 10 12  1  0  0  0  0
 10 15  1  0  0  0  0
 11 13  2  0  0  0  0
 11 16  1  0  0  0  0
 12 14  2  0  0  0  0
 12 29  1  0  0  0  0
 13 14  1  0  0  0  0
 13 30  1  0  0  0  0
 14 27  1  0  0  0  0
 15 31  1  0  0  0  0
 15 32  1  0  0  0  0
 15 33  1  0  0  0  0
 16 34  1  0  0  0  0
 16 35  1  0  0  0  0
 16 36  1  0  0  0  0
 17 20  1  0  0  0  0
 19 22  2  0  0  0  0
 19 23  1  0  0  0  0
 20 21  2  0  0  0  0
 22 24  1  0  0  0  0
 22 38  1  0  0  0  0
 23 25  2  0  0  0  0
 23 39  1  0  0  0  0
 24 26  2  0  0  0  0
 24 40  1  0  0  0  0
 25 26  1  0  0  0  0
 25 41  1  0  0  0  0
 26 28  1  0  0  0  0
M  END
> <PUBCHEM_COMPOUND_CID>
193962

> <PUBCHEM_CONFORMER_RMSD>
0.8

> <PUBCHEM_CONFORMER_DIVERSEORDER>
1
15
7
8
12
6
14
4
5
11
2
10
3
13
9

> <PUBCHEM_MMFF94_PARTIAL_CHARGES>
37
1 -0.11
10 -0.14
11 -0.14
12 -0.15
13 -0.15
14 0.07
15 0.14
16 0.14
17 0.39
18 0.72
19 0.1
2 -0.17
20 0.11
21 0.41
22 -0.15
23 -0.15
24 -0.15
25 -0.15
26 0.07
27 0.48
28 0.48
29 0.15
3 -0.6
30 0.15
37 0.4
38 0.15
39 0.15
4 -0.62
40 0.15
41 0.15
42 0.4
43 0.4
5 -0.62
6 -0.9
7 -0.56
8 -0.56
9 0.08

> <PUBCHEM_EFFECTIVE_ROTOR_COUNT>
4

> <PUBCHEM_PHARMACOPHORE_FEATURES>
10
1 1 hydrophobe
1 3 donor
1 6 cation
1 6 donor
1 7 acceptor
1 8 acceptor
4 3 4 5 18 cation
6 19 22 23 24 25 26 rings
6 4 5 17 18 20 21 rings
6 9 10 11 12 13 14 rings

> <PUBCHEM_HEAVY_ATOM_COUNT>
28

> <PUBCHEM_ATOM_DEF_STEREO_COUNT>
0

> <PUBCHEM_ATOM_UDEF_STEREO_COUNT>
0

> <PUBCHEM_BOND_DEF_STEREO_COUNT>
0

> <PUBCHEM_BOND_UDEF_STEREO_COUNT>
0

> <PUBCHEM_ISOTOPIC_ATOM_COUNT>
0

> <PUBCHEM_COMPONENT_COUNT>
1

> <PUBCHEM_CACTVS_TAUTO_COUNT>
9

> <PUBCHEM_CONFORMER_ID>
0002F5AA00000001

> <PUBCHEM_MMFF94_ENERGY>
92.7201

> <PUBCHEM_FEATURE_SELFOVERLAP>
50.745

> <PUBCHEM_SHAPE_FINGERPRINT>
104564 63 18195529422691196956
10688039 33 18045501069650159807
1100329 8 18264481789760508610
12156800 1 18124563578911145353
12422481 6 18126873648805020251
12539773 59 13661297710471636139
12788726 201 18118114999549882384
13140716 1 18411409623359256528
13402501 40 18410862019076278201
1361 2 18337952286769207705
138480 1 17041197939991549417
14028597 1 17607214814148674616
14866123 147 18263072241845355106
15131766 46 15865786308525466252
15664445 248 17189822251365869821
16728300 4 17029075906243161730
17138139 8 17842522332828471101
20775438 99 18129937880785881759
21133410 90 17346319374979297009
21197605 99 18341055198571090479
21304304 249 18265893549773847030
23227448 37 18411983550758579799
23558518 356 18261677081658276514
23559900 14 17329422844851090661
238 59 18121789335028261257
3052486 1 18261395588989915756
338550 245 18261681488331892469
463206 1 18411980261114785661
469060 322 17095792321653069079
5171179 24 17555167322572910016

> <PUBCHEM_SHAPE_MULTIPOLES>
546.41
9.15
5.34
1.35
0.34
1.1
-0.1
-5.26
0.03
3.98
-0.36
-0.4
1.34
0.14

> <PUBCHEM_SHAPE_SELFOVERLAP>
1176.401

> <PUBCHEM_SHAPE_VOLUME>
306.2

> <PUBCHEM_COORDINATE_TYPE>
2
5
10

$$$$