150893
  -OEChem-03242010103D

 55 57  0     0  0  0  0  0  0999 V2000
   -0.0874   -0.6190    0.2982 O   0  0  0  0  0  0  0  0  0  0  0  0
    3.8811    2.1395    0.0487 O   0  0  0  0  0  0  0  0  0  0  0  0
    1.4747   -2.8293    0.1823 O   0  0  0  0  0  0  0  0  0  0  0  0
   -1.2340    2.9024    0.4178 O   0  0  0  0  0  0  0  0  0  0  0  0
    5.4000   -0.1218   -0.0654 O   0  0  0  0  0  0  0  0  0  0  0  0
    4.2147   -2.6072    0.0000 O   0  0  0  0  0  0  0  0  0  0  0  0
    1.4890    3.1357    0.2180 O   0  0  0  0  0  0  0  0  0  0  0  0
   -5.1520   -0.4610   -1.8015 O   0  0  0  0  0  0  0  0  0  0  0  0
   -6.3540   -0.8164    0.6787 O   0  0  0  0  0  0  0  0  0  0  0  0
    1.8680    0.8109    0.1756 C   0  0  0  0  0  0  0  0  0  0  0  0
    1.2688   -0.4454    0.2088 C   0  0  0  0  0  0  0  0  0  0  0  0
   -0.8972    0.5045    0.3498 C   0  0  0  0  0  0  0  0  0  0  0  0
    3.2573    0.9275    0.0834 C   0  0  0  0  0  0  0  0  0  0  0  0
    2.0558   -1.5960    0.1499 C   0  0  0  0  0  0  0  0  0  0  0  0
    1.0151    2.0072    0.2405 C   0  0  0  0  0  0  0  0  0  0  0  0
   -0.4468    1.7752    0.3369 C   0  0  0  0  0  0  0  0  0  0  0  0
    4.0427   -0.2244    0.0244 C   0  0  0  0  0  0  0  0  0  0  0  0
    3.4432   -1.4839    0.0575 C   0  0  0  0  0  0  0  0  0  0  0  0
   -2.3252    0.1596    0.4325 C   0  0  0  0  0  0  0  0  0  0  0  0
   -3.0757    0.0093   -0.7340 C   0  0  0  0  0  0  0  0  0  0  0  0
   -2.9296   -0.0176    1.6773 C   0  0  0  0  0  0  0  0  0  0  0  0
   -4.4293   -0.3182   -0.6557 C   0  0  0  0  0  0  0  0  0  0  0  0
   -5.0332   -0.4951    0.5891 C   0  0  0  0  0  0  0  0  0  0  0  0
   -4.2833   -0.3447    1.7557 C   0  0  0  0  0  0  0  0  0  0  0  0
    4.6669    2.4297   -1.1050 C   0  0  0  0  0  0  0  0  0  0  0  0
    1.1141   -3.4075   -1.0699 C   0  0  0  0  0  0  0  0  0  0  0  0
   -1.6247    3.3376   -0.8707 C   0  0  0  0  0  0  0  0  0  0  0  0
    6.1275   -0.0806    1.1596 C   0  0  0  0  0  0  0  0  0  0  0  0
    5.0290   -2.7738   -1.1581 C   0  0  0  0  0  0  0  0  0  0  0  0
   -5.7912    0.7064   -2.3145 C   0  0  0  0  0  0  0  0  0  0  0  0
   -6.6842   -2.2037    0.6903 C   0  0  0  0  0  0  0  0  0  0  0  0
   -2.6113    0.1385   -1.7094 H   0  0  0  0  0  0  0  0  0  0  0  0
   -2.3580    0.0957    2.5954 H   0  0  0  0  0  0  0  0  0  0  0  0
   -4.7473   -0.4807    2.7288 H   0  0  0  0  0  0  0  0  0  0  0  0
    5.7265    2.2719   -0.8857 H   0  0  0  0  0  0  0  0  0  0  0  0
    4.3650    1.8400   -1.9778 H   0  0  0  0  0  0  0  0  0  0  0  0
    4.5283    3.4877   -1.3474 H   0  0  0  0  0  0  0  0  0  0  0  0
    0.3814   -2.7803   -1.5876 H   0  0  0  0  0  0  0  0  0  0  0  0
    0.6627   -4.3847   -0.8781 H   0  0  0  0  0  0  0  0  0  0  0  0
    1.9977   -3.5487   -1.6998 H   0  0  0  0  0  0  0  0  0  0  0  0
   -2.1984    4.2622   -0.7544 H   0  0  0  0  0  0  0  0  0  0  0  0
   -0.7555    3.5626   -1.4989 H   0  0  0  0  0  0  0  0  0  0  0  0
   -2.2680    2.6109   -1.3731 H   0  0  0  0  0  0  0  0  0  0  0  0
    7.1915    0.0057    0.9227 H   0  0  0  0  0  0  0  0  0  0  0  0
    5.9707   -1.0000    1.7325 H   0  0  0  0  0  0  0  0  0  0  0  0
    5.8310    0.7879    1.7562 H   0  0  0  0  0  0  0  0  0  0  0  0
    4.6266   -2.2449   -2.0293 H   0  0  0  0  0  0  0  0  0  0  0  0
    5.0628   -3.8414   -1.3945 H   0  0  0  0  0  0  0  0  0  0  0  0
    6.0498   -2.4419   -0.9494 H   0  0  0  0  0  0  0  0  0  0  0  0
   -5.0493    1.4722   -2.5620 H   0  0  0  0  0  0  0  0  0  0  0  0
   -6.5115    1.1008   -1.5907 H   0  0  0  0  0  0  0  0  0  0  0  0
   -6.3274    0.4306   -3.2267 H   0  0  0  0  0  0  0  0  0  0  0  0
   -6.3483   -2.6878   -0.2322 H   0  0  0  0  0  0  0  0  0  0  0  0
   -7.7716   -2.2964    0.7577 H   0  0  0  0  0  0  0  0  0  0  0  0
   -6.2363   -2.6972    1.5587 H   0  0  0  0  0  0  0  0  0  0  0  0
  1 11  1  0  0  0  0
  1 12  1  0  0  0  0
  2 13  1  0  0  0  0
  2 25  1  0  0  0  0
  3 14  1  0  0  0  0
  3 26  1  0  0  0  0
  4 16  1  0  0  0  0
  4 27  1  0  0  0  0
  5 17  1  0  0  0  0
  5 28  1  0  0  0  0
  6 18  1  0  0  0  0
  6 29  1  0  0  0  0
  7 15  2  0  0  0  0
  8 22  1  0  0  0  0
  8 30  1  0  0  0  0
  9 23  1  0  0  0  0
  9 31  1  0  0  0  0
 10 11  2  0  0  0  0
 10 13  1  0  0  0  0
 10 15  1  0  0  0  0
 11 14  1  0  0  0  0
 12 16  2  0  0  0  0
 12 19  1  0  0  0  0
 13 17  2  0  0  0  0
 14 18  2  0  0  0  0
 15 16  1  0  0  0  0
 17 18  1  0  0  0  0
 19 20  2  0  0  0  0
 19 21  1  0  0  0  0
 20 22  1  0  0  0  0
 20 32  1  0  0  0  0
 21 24  2  0  0  0  0
 21 33  1  0  0  0  0
 22 23  2  0  0  0  0
 23 24  1  0  0  0  0
 24 34  1  0  0  0  0
 25 35  1  0  0  0  0
 25 36  1  0  0  0  0
 25 37  1  0  0  0  0
 26 38  1  0  0  0  0
 26 39  1  0  0  0  0
 26 40  1  0  0  0  0
 27 41  1  0  0  0  0
 27 42  1  0  0  0  0
 27 43  1  0  0  0  0
 28 44  1  0  0  0  0
 28 45  1  0  0  0  0
 28 46  1  0  0  0  0
 29 47  1  0  0  0  0
 29 48  1  0  0  0  0
 29 49  1  0  0  0  0
 30 50  1  0  0  0  0
 30 51  1  0  0  0  0
 30 52  1  0  0  0  0
 31 53  1  0  0  0  0
 31 54  1  0  0  0  0
 31 55  1  0  0  0  0
M  END
> <PUBCHEM_COMPOUND_CID>
150893

> <PUBCHEM_CONFORMER_RMSD>
1

> <PUBCHEM_CONFORMER_DIVERSEORDER>
1
5
6
3
4
8
2
7

> <PUBCHEM_MMFF94_PARTIAL_CHARGES>
34
1 -0.16
10 0.09
11 0.08
12 0.05
13 0.08
14 0.08
15 0.47
16 0.09
17 0.08
18 0.08
19 0.03
2 -0.36
20 -0.15
21 -0.15
22 0.08
23 0.08
24 -0.15
25 0.28
26 0.28
27 0.28
28 0.28
29 0.28
3 -0.36
30 0.28
31 0.28
32 0.15
33 0.15
34 0.15
4 -0.36
5 -0.36
6 -0.36
7 -0.57
8 -0.36
9 -0.36

> <PUBCHEM_EFFECTIVE_ROTOR_COUNT>
8

> <PUBCHEM_PHARMACOPHORE_FEATURES>
12
1 1 acceptor
1 2 acceptor
1 3 acceptor
1 4 acceptor
1 5 acceptor
1 6 acceptor
1 7 acceptor
1 8 acceptor
1 9 acceptor
6 1 10 11 12 15 16 rings
6 10 11 13 14 17 18 rings
6 19 20 21 22 23 24 rings

> <PUBCHEM_HEAVY_ATOM_COUNT>
31

> <PUBCHEM_ATOM_DEF_STEREO_COUNT>
0

> <PUBCHEM_ATOM_UDEF_STEREO_COUNT>
0

> <PUBCHEM_BOND_DEF_STEREO_COUNT>
0

> <PUBCHEM_BOND_UDEF_STEREO_COUNT>
0

> <PUBCHEM_ISOTOPIC_ATOM_COUNT>
0

> <PUBCHEM_COMPONENT_COUNT>
1

> <PUBCHEM_CACTVS_TAUTO_COUNT>
1

> <PUBCHEM_CONFORMER_ID>
00024D6D00000001

> <PUBCHEM_MMFF94_ENERGY>
164.597

> <PUBCHEM_FEATURE_SELFOVERLAP>
60.978

> <PUBCHEM_SHAPE_FINGERPRINT>
10411042 1 18267028246227736690
11227688 84 17766844927173673454
11421498 54 17489036975990707762
11796584 16 16588019087634877602
11963148 33 18336823186347559794
12166972 35 17530968015883711429
12236239 1 17846788438044104401
12553582 1 18341047437132760979
12596602 18 16630521838871824802
13140716 1 18195809798166784320
13402501 40 18260271884371031307
13544653 18 18336552633418882681
13782708 43 17676207991955333019
13911987 19 18263932205323488453
14790565 3 17977679928179527584
14840074 17 18202005438804537687
15537594 2 18130787910363017007
15927050 60 17549828128114421324
17357779 13 18333726897426392757
17492 89 18266742368550799602
1813 80 18271825496457200477
19301676 85 16681194709361038983
20028762 73 18130511911285557478
20645477 70 18335422382710059019
21033648 29 17895463830527476365
21033650 10 16443345326388582573
21197605 99 18196098969557026091
21267235 1 18412551998570755314
21623969 137 18336551598416362003
21641784 216 18115043930240413156
22149856 69 18271542939454842811
23559900 14 18260543416113271049
23569914 152 17256782526724992079
24771750 20 17247534985432874373
314194 84 18273213114528024147
34797466 226 17023192677115097613
350125 39 18410015421125095352
3882209 13 17107313825134712347
4098825 35 18334293163737962817
46194498 28 17677332865570453669
463206 1 18270675488687805343
5104073 3 18197776597109792514
5283173 99 17677041365966241101
57527295 17 17968916627933380627

> <PUBCHEM_SHAPE_MULTIPOLES>
585.14
14.66
3.54
1.37
9.29
0.26
0.35
-5.87
1
-3.03
0.93
1.9
-0.05
1.18

> <PUBCHEM_SHAPE_SELFOVERLAP>
1264.639

> <PUBCHEM_SHAPE_VOLUME>
323.4

> <PUBCHEM_COORDINATE_TYPE>
2
5
10

$$$$