44257640
  -OEChem-03242010103D

 38 40  0     0  0  0  0  0  0999 V2000
    0.8012    0.7607   -0.0261 O   0  0  0  0  0  0  0  0  0  0  0  0
   -3.0918   -2.1113   -0.1654 O   0  0  0  0  0  0  0  0  0  0  0  0
   -3.5495    2.6381   -0.0902 O   0  0  0  0  0  0  0  0  0  0  0  0
   -0.6587   -3.0417   -0.1203 O   0  0  0  0  0  0  0  0  0  0  0  0
   -1.1197   -0.7240   -0.0959 C   0  0  0  0  0  0  0  0  0  0  0  0
   -0.5538    0.5492   -0.0605 C   0  0  0  0  0  0  0  0  0  0  0  0
   -2.5074   -0.8797   -0.1301 C   0  0  0  0  0  0  0  0  0  0  0  0
   -3.3260    0.2504   -0.1284 C   0  0  0  0  0  0  0  0  0  0  0  0
   -2.7611    1.5261   -0.0925 C   0  0  0  0  0  0  0  0  0  0  0  0
   -1.3747    1.6773   -0.0584 C   0  0  0  0  0  0  0  0  0  0  0  0
   -0.2309   -1.8960   -0.0952 C   0  0  0  0  0  0  0  0  0  0  0  0
    1.6423   -0.3415   -0.0360 C   0  0  0  0  0  0  0  0  0  0  0  0
    1.2186   -1.6152   -0.0614 C   0  0  0  0  0  0  0  0  0  0  0  0
   -4.8139    0.0994   -0.1649 C   0  0  0  0  0  0  0  0  0  0  0  0
    3.0784   -0.0008    0.0074 C   0  0  0  0  0  0  0  0  0  0  0  0
    3.9251   -0.4163   -1.0204 C   0  0  0  0  0  0  0  0  0  0  0  0
    3.5884    0.7364    1.0759 C   0  0  0  0  0  0  0  0  0  0  0  0
   -3.3976   -2.7179    1.0881 C   0  0  0  0  0  0  0  0  0  0  0  0
    5.2818   -0.0946   -0.9795 C   0  0  0  0  0  0  0  0  0  0  0  0
    4.9450    1.0582    1.1169 C   0  0  0  0  0  0  0  0  0  0  0  0
    5.7918    0.6426    0.0892 C   0  0  0  0  0  0  0  0  0  0  0  0
   -2.8875    3.9006   -0.0523 C   0  0  0  0  0  0  0  0  0  0  0  0
   -0.8731    2.6388   -0.0296 H   0  0  0  0  0  0  0  0  0  0  0  0
    1.8959   -2.4620   -0.0560 H   0  0  0  0  0  0  0  0  0  0  0  0
   -5.2935    0.9443   -0.6708 H   0  0  0  0  0  0  0  0  0  0  0  0
   -5.1208   -0.7927   -0.7209 H   0  0  0  0  0  0  0  0  0  0  0  0
   -5.2097    0.0355    0.8535 H   0  0  0  0  0  0  0  0  0  0  0  0
    3.5457   -0.9875   -1.8643 H   0  0  0  0  0  0  0  0  0  0  0  0
    2.9426    1.0661    1.8862 H   0  0  0  0  0  0  0  0  0  0  0  0
   -3.5946   -3.7795    0.9149 H   0  0  0  0  0  0  0  0  0  0  0  0
   -4.2956   -2.2642    1.5174 H   0  0  0  0  0  0  0  0  0  0  0  0
   -2.5661   -2.6275    1.7947 H   0  0  0  0  0  0  0  0  0  0  0  0
    5.9410   -0.4171   -1.7802 H   0  0  0  0  0  0  0  0  0  0  0  0
    5.3423    1.6320    1.9491 H   0  0  0  0  0  0  0  0  0  0  0  0
    6.8481    0.8933    0.1210 H   0  0  0  0  0  0  0  0  0  0  0  0
   -3.6654    4.6713   -0.0560 H   0  0  0  0  0  0  0  0  0  0  0  0
   -2.2765    4.0640   -0.9467 H   0  0  0  0  0  0  0  0  0  0  0  0
   -2.3177    4.0310    0.8740 H   0  0  0  0  0  0  0  0  0  0  0  0
  1  6  1  0  0  0  0
  1 12  1  0  0  0  0
  2  7  1  0  0  0  0
  2 18  1  0  0  0  0
  3  9  1  0  0  0  0
  3 22  1  0  0  0  0
  4 11  2  0  0  0  0
  5  6  1  0  0  0  0
  5  7  2  0  0  0  0
  5 11  1  0  0  0  0
  6 10  2  0  0  0  0
  7  8  1  0  0  0  0
  8  9  2  0  0  0  0
  8 14  1  0  0  0  0
  9 10  1  0  0  0  0
 10 23  1  0  0  0  0
 11 13  1  0  0  0  0
 12 13  2  0  0  0  0
 12 15  1  0  0  0  0
 13 24  1  0  0  0  0
 14 25  1  0  0  0  0
 14 26  1  0  0  0  0
 14 27  1  0  0  0  0
 15 16  2  0  0  0  0
 15 17  1  0  0  0  0
 16 19  1  0  0  0  0
 16 28  1  0  0  0  0
 17 20  2  0  0  0  0
 17 29  1  0  0  0  0
 18 30  1  0  0  0  0
 18 31  1  0  0  0  0
 18 32  1  0  0  0  0
 19 21  2  0  0  0  0
 19 33  1  0  0  0  0
 20 21  1  0  0  0  0
 20 34  1  0  0  0  0
 21 35  1  0  0  0  0
 22 36  1  0  0  0  0
 22 37  1  0  0  0  0
 22 38  1  0  0  0  0
M  END
> <PUBCHEM_COMPOUND_CID>
44257640

> <PUBCHEM_CONFORMER_RMSD>
0.6

> <PUBCHEM_CONFORMER_DIVERSEORDER>
3
2
1
4

> <PUBCHEM_MMFF94_PARTIAL_CHARGES>
29
1 -0.16
10 -0.15
11 0.47
12 0.05
13 -0.14
14 0.14
15 0.03
16 -0.15
17 -0.15
18 0.28
19 -0.15
2 -0.36
20 -0.15
21 -0.15
22 0.28
23 0.15
24 0.15
28 0.15
29 0.15
3 -0.36
33 0.15
34 0.15
35 0.15
4 -0.57
5 0.09
6 0.08
7 0.08
8 -0.14
9 0.08

> <PUBCHEM_EFFECTIVE_ROTOR_COUNT>
3

> <PUBCHEM_PHARMACOPHORE_FEATURES>
7
1 1 acceptor
1 2 acceptor
1 3 acceptor
1 4 acceptor
6 1 5 6 11 12 13 rings
6 15 16 17 19 20 21 rings
6 5 6 7 8 9 10 rings

> <PUBCHEM_HEAVY_ATOM_COUNT>
22

> <PUBCHEM_ATOM_DEF_STEREO_COUNT>
0

> <PUBCHEM_ATOM_UDEF_STEREO_COUNT>
0

> <PUBCHEM_BOND_DEF_STEREO_COUNT>
0

> <PUBCHEM_BOND_UDEF_STEREO_COUNT>
0

> <PUBCHEM_ISOTOPIC_ATOM_COUNT>
0

> <PUBCHEM_COMPONENT_COUNT>
1

> <PUBCHEM_CACTVS_TAUTO_COUNT>
1

> <PUBCHEM_CONFORMER_ID>
02A3516800000003

> <PUBCHEM_MMFF94_ENERGY>
89.9402

> <PUBCHEM_FEATURE_SELFOVERLAP>
35.563

> <PUBCHEM_SHAPE_FINGERPRINT>
10319926 262 18340749513201128978
10411042 1 18050005798960021711
10493431 412 18267593416447089633
10498660 4 18340202977832620408
10646746 165 18412543206820153660
10670039 82 18261965046531389524
12107183 9 17829315892439991562
12173636 292 18411132511309754502
12236239 1 17530682130497436926
12390115 104 18200042716065562153
12403259 226 18128250279969400065
12403259 415 18131070459282069952
12403814 3 17385436614039505349
12596602 18 17167865313454902880
12788726 201 17825123746339667826
12916748 109 18410857659452162704
13140716 1 18119531195884967083
14178342 30 18261112941481865030
14508225 48 17911222129950564959
14790565 3 17622171161484549529
15042514 8 18265055915208524715
15196674 1 18339079272474100910
16087824 20 18411416204056158687
17844677 252 18410299150933022248
18186145 218 17988646268286258480
200 152 15554450682730342386
20510252 161 18343865536715532106
20645477 56 17988076811626195162
20645477 70 16845299307061046310
21033648 29 17917136265309336352
21065201 7 18410855447934291554
21267235 1 18264777725723494395
21279426 13 18127695929315913534
21792961 116 17917162658906483364
22122407 14 15791740675971052029
22182313 1 18271544021238091742
23175994 123 17203333333673618736
23366157 5 17753897112229973114
23402539 116 18341043124732427502
23557571 272 18343027661779786276
23559900 14 18272090436432001894
283562 15 18411416233061139651
350125 39 18410578409237460465
4214541 1 18411981351993916892
469060 322 18191889974794691011
495365 180 17203034241384637658
5104073 3 18264772064681746850
59755656 215 18411417293701485255
7808743 9 18336547127587788040
9709674 26 18343024350217433342
9981440 41 18334857173857431275

> <PUBCHEM_SHAPE_MULTIPOLES>
429.27
10.95
3.15
0.87
11.67
0.99
0.09
3.01
0.17
-5.03
0.28
0.74
-0.07
1.04

> <PUBCHEM_SHAPE_SELFOVERLAP>
944.444

> <PUBCHEM_SHAPE_VOLUME>
231.5

> <PUBCHEM_COORDINATE_TYPE>
2
5
10

$$$$