6483036
  -OEChem-03242010103D

 73 77  0     1  0  0  0  0  0999 V2000
    4.3354   -4.6007   -0.5956 F   0  0  0  0  0  0  0  0  0  0  0  0
    4.6980    1.1426    0.2945 O   0  0  0  0  0  0  0  0  0  0  0  0
    5.9275    4.2201   -0.4588 O   0  0  0  0  0  0  0  0  0  0  0  0
    6.7468    0.4956    0.9630 O   0  0  0  0  0  0  0  0  0  0  0  0
   -3.6212    0.4674    1.9009 O   0  0  0  0  0  0  0  0  0  0  0  0
    0.6108    0.4458    0.7601 N   0  0  0  0  0  0  0  0  0  0  0  0
   -3.5895    1.0793   -0.3501 N   0  0  0  0  0  0  0  0  0  0  0  0
    3.8562    2.1826   -0.2494 C   0  0  2  0  0  0  0  0  0  0  0  0
    2.4585    1.5992   -0.4130 C   0  0  0  0  0  0  0  0  0  0  0  0
    1.9455    1.0182    0.9009 C   0  0  0  0  0  0  0  0  0  0  0  0
   -0.5592    1.1332    0.9511 C   0  0  0  0  0  0  0  0  0  0  0  0
    4.3849    2.7221   -1.5703 C   0  0  0  0  0  0  0  0  0  0  0  0
    0.3307   -0.8528    0.4229 C   0  0  0  0  0  0  0  0  0  0  0  0
   -0.5739    2.5639    1.3273 C   0  0  0  0  0  0  0  0  0  0  0  0
   -1.6020    0.2604    0.7318 C   0  0  0  0  0  0  0  0  0  0  0  0
   -1.0390   -0.9960    0.3974 C   0  0  0  0  0  0  0  0  0  0  0  0
    5.8298    3.1507   -1.3953 C   0  0  2  0  0  0  0  0  0  0  0  0
    6.6641    1.9848   -0.9012 C   0  0  0  0  0  0  0  0  0  0  0  0
    1.3718   -1.8262    0.1585 C   0  0  0  0  0  0  0  0  0  0  0  0
    6.0485    1.1814    0.2188 C   0  0  0  0  0  0  0  0  0  0  0  0
   -1.2485    3.4631    0.2656 C   0  0  0  0  0  0  0  0  0  0  0  0
   -1.2245    2.8211    2.7062 C   0  0  0  0  0  0  0  0  0  0  0  0
   -1.7019   -2.2310    0.0791 C   0  0  0  0  0  0  0  0  0  0  0  0
   -2.9918    0.6095    0.8350 C   0  0  0  0  0  0  0  0  0  0  0  0
    1.8823   -2.6017    1.1995 C   0  0  0  0  0  0  0  0  0  0  0  0
    1.8624   -1.9882   -1.1373 C   0  0  0  0  0  0  0  0  0  0  0  0
   -2.0335   -2.5240   -1.2439 C   0  0  0  0  0  0  0  0  0  0  0  0
   -2.0137   -3.1369    1.0931 C   0  0  0  0  0  0  0  0  0  0  0  0
    2.8835   -3.5391    0.9447 C   0  0  0  0  0  0  0  0  0  0  0  0
    2.8633   -2.9255   -1.3920 C   0  0  0  0  0  0  0  0  0  0  0  0
   -2.6771   -3.7223   -1.5527 C   0  0  0  0  0  0  0  0  0  0  0  0
   -2.6572   -4.3353    0.7841 C   0  0  0  0  0  0  0  0  0  0  0  0
    3.3738   -3.7011   -0.3511 C   0  0  0  0  0  0  0  0  0  0  0  0
   -4.9349    1.4648   -0.5758 C   0  0  0  0  0  0  0  0  0  0  0  0
   -2.9889   -4.6280   -0.5389 C   0  0  0  0  0  0  0  0  0  0  0  0
   -5.8623    1.4015    0.4643 C   0  0  0  0  0  0  0  0  0  0  0  0
   -5.3313    1.9081   -1.8376 C   0  0  0  0  0  0  0  0  0  0  0  0
   -7.1860    1.7812    0.2426 C   0  0  0  0  0  0  0  0  0  0  0  0
   -6.6551    2.2879   -2.0592 C   0  0  0  0  0  0  0  0  0  0  0  0
   -7.5824    2.2244   -1.0191 C   0  0  0  0  0  0  0  0  0  0  0  0
    3.8173    2.9834    0.4995 H   0  0  0  0  0  0  0  0  0  0  0  0
    1.7732    2.3736   -0.7783 H   0  0  0  0  0  0  0  0  0  0  0  0
    2.4786    0.8123   -1.1751 H   0  0  0  0  0  0  0  0  0  0  0  0
    1.9477    1.7486    1.7141 H   0  0  0  0  0  0  0  0  0  0  0  0
    2.6028    0.2166    1.2545 H   0  0  0  0  0  0  0  0  0  0  0  0
    3.7709    3.5714   -1.8913 H   0  0  0  0  0  0  0  0  0  0  0  0
    4.3317    1.9499   -2.3475 H   0  0  0  0  0  0  0  0  0  0  0  0
    0.4384    2.9660    1.4079 H   0  0  0  0  0  0  0  0  0  0  0  0
    6.2246    3.5181   -2.3489 H   0  0  0  0  0  0  0  0  0  0  0  0
    7.6363    2.3479   -0.5478 H   0  0  0  0  0  0  0  0  0  0  0  0
    6.8360    1.2830   -1.7259 H   0  0  0  0  0  0  0  0  0  0  0  0
   -1.0483    4.5183    0.4833 H   0  0  0  0  0  0  0  0  0  0  0  0
   -0.8625    3.2469   -0.7364 H   0  0  0  0  0  0  0  0  0  0  0  0
   -2.3342    3.3399    0.2514 H   0  0  0  0  0  0  0  0  0  0  0  0
   -0.7625    2.1940    3.4764 H   0  0  0  0  0  0  0  0  0  0  0  0
   -1.0924    3.8684    2.9997 H   0  0  0  0  0  0  0  0  0  0  0  0
   -2.2986    2.6153    2.6991 H   0  0  0  0  0  0  0  0  0  0  0  0
    6.8614    4.4870   -0.4120 H   0  0  0  0  0  0  0  0  0  0  0  0
    1.5106   -2.4874    2.2150 H   0  0  0  0  0  0  0  0  0  0  0  0
    1.4720   -1.3951   -1.9609 H   0  0  0  0  0  0  0  0  0  0  0  0
   -1.7982   -1.8284   -2.0461 H   0  0  0  0  0  0  0  0  0  0  0  0
   -1.7624   -2.9239    2.1295 H   0  0  0  0  0  0  0  0  0  0  0  0
   -2.9848    1.1513   -1.1663 H   0  0  0  0  0  0  0  0  0  0  0  0
    3.2813   -4.1429    1.7550 H   0  0  0  0  0  0  0  0  0  0  0  0
    3.2449   -3.0523   -2.4008 H   0  0  0  0  0  0  0  0  0  0  0  0
   -2.9355   -3.9502   -2.5827 H   0  0  0  0  0  0  0  0  0  0  0  0
   -2.9001   -5.0406    1.5735 H   0  0  0  0  0  0  0  0  0  0  0  0
   -3.4899   -5.5610   -0.7794 H   0  0  0  0  0  0  0  0  0  0  0  0
   -5.6365    1.0708    1.4676 H   0  0  0  0  0  0  0  0  0  0  0  0
   -4.6186    1.9626   -2.6565 H   0  0  0  0  0  0  0  0  0  0  0  0
   -7.9092    1.7324    1.0516 H   0  0  0  0  0  0  0  0  0  0  0  0
   -6.9639    2.6332   -3.0416 H   0  0  0  0  0  0  0  0  0  0  0  0
   -8.6130    2.5201   -1.1918 H   0  0  0  0  0  0  0  0  0  0  0  0
  1 33  1  0  0  0  0
  2  8  1  0  0  0  0
  2 20  1  0  0  0  0
  3 17  1  0  0  0  0
  3 58  1  0  0  0  0
  4 20  2  0  0  0  0
  5 24  2  0  0  0  0
  6 10  1  0  0  0  0
  6 11  1  0  0  0  0
  6 13  1  0  0  0  0
  7 24  1  0  0  0  0
  7 34  1  0  0  0  0
  7 63  1  0  0  0  0
  8  9  1  0  0  0  0
  8 12  1  0  0  0  0
  8 41  1  0  0  0  0
  9 10  1  0  0  0  0
  9 42  1  0  0  0  0
  9 43  1  0  0  0  0
 10 44  1  0  0  0  0
 10 45  1  0  0  0  0
 11 14  1  0  0  0  0
 11 15  2  0  0  0  0
 12 17  1  0  0  0  0
 12 46  1  0  0  0  0
 12 47  1  0  0  0  0
 13 16  2  0  0  0  0
 13 19  1  0  0  0  0
 14 21  1  0  0  0  0
 14 22  1  0  0  0  0
 14 48  1  0  0  0  0
 15 16  1  0  0  0  0
 15 24  1  0  0  0  0
 16 23  1  0  0  0  0
 17 18  1  0  0  0  0
 17 49  1  0  0  0  0
 18 20  1  0  0  0  0
 18 50  1  0  0  0  0
 18 51  1  0  0  0  0
 19 25  2  0  0  0  0
 19 26  1  0  0  0  0
 21 52  1  0  0  0  0
 21 53  1  0  0  0  0
 21 54  1  0  0  0  0
 22 55  1  0  0  0  0
 22 56  1  0  0  0  0
 22 57  1  0  0  0  0
 23 27  2  0  0  0  0
 23 28  1  0  0  0  0
 25 29  1  0  0  0  0
 25 59  1  0  0  0  0
 26 30  2  0  0  0  0
 26 60  1  0  0  0  0
 27 31  1  0  0  0  0
 27 61  1  0  0  0  0
 28 32  2  0  0  0  0
 28 62  1  0  0  0  0
 29 33  2  0  0  0  0
 29 64  1  0  0  0  0
 30 33  1  0  0  0  0
 30 65  1  0  0  0  0
 31 35  2  0  0  0  0
 31 66  1  0  0  0  0
 32 35  1  0  0  0  0
 32 67  1  0  0  0  0
 34 36  2  0  0  0  0
 34 37  1  0  0  0  0
 35 68  1  0  0  0  0
 36 38  1  0  0  0  0
 36 69  1  0  0  0  0
 37 39  2  0  0  0  0
 37 70  1  0  0  0  0
 38 40  2  0  0  0  0
 38 71  1  0  0  0  0
 39 40  1  0  0  0  0
 39 72  1  0  0  0  0
 40 73  1  0  0  0  0
M  END
> <PUBCHEM_COMPOUND_CID>
6483036

> <PUBCHEM_CONFORMER_RMSD>
1.2

> <PUBCHEM_CONFORMER_DIVERSEORDER>
1
12
6
9
2
15
11
16
10
14
4
7
3
17
8
13
5

> <PUBCHEM_MMFF94_PARTIAL_CHARGES>
52
1 -0.19
10 0.26
11 -0.33
13 -0.2
14 0.18
15 -0.09
16 -0.05
17 0.28
18 0.06
19 0.05
2 -0.43
20 0.66
23 0.05
24 0.72
25 -0.15
26 -0.15
27 -0.15
28 -0.15
29 -0.15
3 -0.68
30 -0.15
31 -0.15
32 -0.15
33 0.19
34 0.12
35 -0.15
36 -0.15
37 -0.15
38 -0.15
39 -0.15
4 -0.57
40 -0.15
5 -0.57
58 0.4
59 0.15
6 0.05
60 0.15
61 0.15
62 0.15
63 0.37
64 0.15
65 0.15
66 0.15
67 0.15
68 0.15
69 0.15
7 -0.55
70 0.15
71 0.15
72 0.15
73 0.15
8 0.28

> <PUBCHEM_EFFECTIVE_ROTOR_COUNT>
10

> <PUBCHEM_PHARMACOPHORE_FEATURES>
12
1 3 acceptor
1 3 donor
1 4 acceptor
1 5 acceptor
1 6 cation
1 7 donor
3 14 21 22 hydrophobe
5 6 11 13 15 16 rings
6 19 25 26 29 30 33 rings
6 2 8 12 17 18 20 rings
6 23 27 28 31 32 35 rings
6 34 36 37 38 39 40 rings

> <PUBCHEM_HEAVY_ATOM_COUNT>
40

> <PUBCHEM_ATOM_DEF_STEREO_COUNT>
2

> <PUBCHEM_ATOM_UDEF_STEREO_COUNT>
0

> <PUBCHEM_BOND_DEF_STEREO_COUNT>
0

> <PUBCHEM_BOND_UDEF_STEREO_COUNT>
0

> <PUBCHEM_ISOTOPIC_ATOM_COUNT>
0

> <PUBCHEM_COMPONENT_COUNT>
1

> <PUBCHEM_CACTVS_TAUTO_COUNT>
2

> <PUBCHEM_CONFORMER_ID>
0062EC5C00000001

> <PUBCHEM_MMFF94_ENERGY>
108.4115

> <PUBCHEM_FEATURE_SELFOVERLAP>
60.897

> <PUBCHEM_SHAPE_FINGERPRINT>
10190108 129 17905903813814075051
10675989 125 18265615369000096491
11135926 11 18341907284979385745
11578080 2 18260830405648746151
11991303 11 18335415807658369765
13140716 1 18127982012196862992
13911987 19 18413106144200474737
14068700 675 17840578206764077891
14117953 113 18408887313779155828
15439362 3 18336544928195098813
15927050 60 18411698824692404299
21033648 29 17313395466090905249
22311459 1 18411982464079996560
244849 19 17387155116375262249
249057 3 18338517409659998542
3178227 256 18194403287015139403
3633792 109 18267299825140790105
4403749 210 18125715932323747648
5265222 85 18048046460332886004
563151 97 18262516030183697238
6669772 16 18336824200222838359

> <PUBCHEM_SHAPE_MULTIPOLES>
782.47
16.15
6.78
1.74
2.16
6.28
0.09
-17.78
-6.77
-2.45
-1.14
1.05
-0.71
-0.4

> <PUBCHEM_SHAPE_SELFOVERLAP>
1704.963

> <PUBCHEM_SHAPE_VOLUME>
428

> <PUBCHEM_COORDINATE_TYPE>
2
5
10

$$$$