70697263
  -OEChem-03242010103D

 68 69  0     1  0  0  0  0  0999 V2000
   -3.0002   -3.6113    2.0807 O   0  0  0  0  0  0  0  0  0  0  0  0
   -0.6218   -4.1189    0.7351 O   0  0  0  0  0  0  0  0  0  0  0  0
    3.8858   -1.9985   -0.5219 O   0  0  0  0  0  0  0  0  0  0  0  0
    6.3246   -0.8538    0.1616 O   0  0  0  0  0  0  0  0  0  0  0  0
   -0.2096    3.4096    0.5880 N   0  0  2  0  0  0  0  0  0  0  0  0
   -5.8099    0.8379    1.0462 N   0  0  0  0  0  0  0  0  0  0  0  0
   -3.5901    0.6144   -0.3885 C   0  0  2  0  0  0  0  0  0  0  0  0
   -3.9888    0.6192   -1.9255 C   0  0  0  0  0  0  0  0  0  0  0  0
   -2.7124    1.8750   -0.0582 C   0  0  0  0  0  0  0  0  0  0  0  0
   -1.9787    1.8265    1.2984 C   0  0  0  0  0  0  0  0  0  0  0  0
   -2.7861   -0.6709   -0.0806 C   0  0  0  0  0  0  0  0  0  0  0  0
   -1.2128    3.1172    1.6045 C   0  0  0  0  0  0  0  0  0  0  0  0
   -4.8787   -0.5730   -2.3255 C   0  0  0  0  0  0  0  0  0  0  0  0
   -4.6716    1.9147   -2.3976 C   0  0  0  0  0  0  0  0  0  0  0  0
   -4.8373    0.7308    0.4213 C   0  0  0  0  0  0  0  0  0  0  0  0
   -3.2549   -1.5752    0.8725 C   0  0  0  0  0  0  0  0  0  0  0  0
   -1.5931   -0.9261   -0.7565 C   0  0  0  0  0  0  0  0  0  0  0  0
    0.9806    2.5799    0.7842 C   0  0  0  0  0  0  0  0  0  0  0  0
    1.7492    2.4062   -0.5261 C   0  0  0  0  0  0  0  0  0  0  0  0
    0.1514    4.8283    0.6129 C   0  0  0  0  0  0  0  0  0  0  0  0
   -2.5306   -2.7348    1.1495 C   0  0  0  0  0  0  0  0  0  0  0  0
   -0.8687   -2.0856   -0.4794 C   0  0  0  0  0  0  0  0  0  0  0  0
   -1.3374   -2.9899    0.4735 C   0  0  0  0  0  0  0  0  0  0  0  0
    2.9663    1.5348   -0.3426 C   0  0  0  0  0  0  0  0  0  0  0  0
    2.8681    0.1543   -0.5161 C   0  0  0  0  0  0  0  0  0  0  0  0
    4.1903    2.1094   -0.0006 C   0  0  0  0  0  0  0  0  0  0  0  0
    3.9940   -0.6517   -0.3474 C   0  0  0  0  0  0  0  0  0  0  0  0
    5.3162    1.3035    0.1683 C   0  0  0  0  0  0  0  0  0  0  0  0
    5.2181   -0.0771   -0.0052 C   0  0  0  0  0  0  0  0  0  0  0  0
    0.5869   -4.3048    0.0007 C   0  0  0  0  0  0  0  0  0  0  0  0
    4.1143   -2.5018   -1.8368 C   0  0  0  0  0  0  0  0  0  0  0  0
    7.5369   -0.1882    0.5111 C   0  0  0  0  0  0  0  0  0  0  0  0
   -3.0722    0.5364   -2.5244 H   0  0  0  0  0  0  0  0  0  0  0  0
   -1.9618    1.9959   -0.8503 H   0  0  0  0  0  0  0  0  0  0  0  0
   -3.3332    2.7808   -0.0817 H   0  0  0  0  0  0  0  0  0  0  0  0
   -2.7166    1.6799    2.0970 H   0  0  0  0  0  0  0  0  0  0  0  0
   -1.3024    0.9696    1.3518 H   0  0  0  0  0  0  0  0  0  0  0  0
   -1.9561    3.9250    1.6431 H   0  0  0  0  0  0  0  0  0  0  0  0
   -0.7681    3.0638    2.6069 H   0  0  0  0  0  0  0  0  0  0  0  0
   -5.0715   -0.5599   -3.4043 H   0  0  0  0  0  0  0  0  0  0  0  0
   -4.0188    2.7827   -2.2675 H   0  0  0  0  0  0  0  0  0  0  0  0
   -4.9102    1.8554   -3.4656 H   0  0  0  0  0  0  0  0  0  0  0  0
   -5.6070    2.1020   -1.8612 H   0  0  0  0  0  0  0  0  0  0  0  0
   -4.4015   -1.5310   -2.0995 H   0  0  0  0  0  0  0  0  0  0  0  0
   -5.8486   -0.5446   -1.8188 H   0  0  0  0  0  0  0  0  0  0  0  0
   -4.1780   -1.4125    1.4186 H   0  0  0  0  0  0  0  0  0  0  0  0
   -1.2008   -0.2325   -1.4946 H   0  0  0  0  0  0  0  0  0  0  0  0
    1.6293    2.9921    1.5695 H   0  0  0  0  0  0  0  0  0  0  0  0
    0.7115    1.5750    1.1306 H   0  0  0  0  0  0  0  0  0  0  0  0
    2.0696    3.3722   -0.9345 H   0  0  0  0  0  0  0  0  0  0  0  0
    1.0974    1.9621   -1.2905 H   0  0  0  0  0  0  0  0  0  0  0  0
   -0.7305    5.4494    0.4175 H   0  0  0  0  0  0  0  0  0  0  0  0
    0.8728    5.0756   -0.1721 H   0  0  0  0  0  0  0  0  0  0  0  0
    0.5736    5.1313    1.5782 H   0  0  0  0  0  0  0  0  0  0  0  0
    0.0497   -2.2173   -1.0410 H   0  0  0  0  0  0  0  0  0  0  0  0
    1.9161   -0.2981   -0.7816 H   0  0  0  0  0  0  0  0  0  0  0  0
    4.2776    3.1838    0.1388 H   0  0  0  0  0  0  0  0  0  0  0  0
   -3.8360   -3.2729    2.4449 H   0  0  0  0  0  0  0  0  0  0  0  0
    6.2329    1.8184    0.4342 H   0  0  0  0  0  0  0  0  0  0  0  0
    1.0251   -5.2511    0.3348 H   0  0  0  0  0  0  0  0  0  0  0  0
    1.3182   -3.5201    0.2228 H   0  0  0  0  0  0  0  0  0  0  0  0
    0.3959   -4.4044   -1.0732 H   0  0  0  0  0  0  0  0  0  0  0  0
    3.9994   -3.5889   -1.8118 H   0  0  0  0  0  0  0  0  0  0  0  0
    5.1294   -2.2641   -2.1700 H   0  0  0  0  0  0  0  0  0  0  0  0
    3.3815   -2.0889   -2.5374 H   0  0  0  0  0  0  0  0  0  0  0  0
    7.8625    0.4978   -0.2782 H   0  0  0  0  0  0  0  0  0  0  0  0
    7.4601    0.3042    1.4865 H   0  0  0  0  0  0  0  0  0  0  0  0
    8.3113   -0.9569    0.6033 H   0  0  0  0  0  0  0  0  0  0  0  0
  1 21  1  0  0  0  0
  1 58  1  0  0  0  0
  2 23  1  0  0  0  0
  2 30  1  0  0  0  0
  3 27  1  0  0  0  0
  3 31  1  0  0  0  0
  4 29  1  0  0  0  0
  4 32  1  0  0  0  0
  5 12  1  0  0  0  0
  5 18  1  0  0  0  0
  5 20  1  0  0  0  0
  6 15  3  0  0  0  0
  7  8  1  0  0  0  0
  7  9  1  0  0  0  0
  7 11  1  0  0  0  0
  7 15  1  0  0  0  0
  8 13  1  0  0  0  0
  8 14  1  0  0  0  0
  8 33  1  0  0  0  0
  9 10  1  0  0  0  0
  9 34  1  0  0  0  0
  9 35  1  0  0  0  0
 10 12  1  0  0  0  0
 10 36  1  0  0  0  0
 10 37  1  0  0  0  0
 11 16  2  0  0  0  0
 11 17  1  0  0  0  0
 12 38  1  0  0  0  0
 12 39  1  0  0  0  0
 13 40  1  0  0  0  0
 13 44  1  0  0  0  0
 13 45  1  0  0  0  0
 14 41  1  0  0  0  0
 14 42  1  0  0  0  0
 14 43  1  0  0  0  0
 16 21  1  0  0  0  0
 16 46  1  0  0  0  0
 17 22  2  0  0  0  0
 17 47  1  0  0  0  0
 18 19  1  0  0  0  0
 18 48  1  0  0  0  0
 18 49  1  0  0  0  0
 19 24  1  0  0  0  0
 19 50  1  0  0  0  0
 19 51  1  0  0  0  0
 20 52  1  0  0  0  0
 20 53  1  0  0  0  0
 20 54  1  0  0  0  0
 21 23  2  0  0  0  0
 22 23  1  0  0  0  0
 22 55  1  0  0  0  0
 24 25  2  0  0  0  0
 24 26  1  0  0  0  0
 25 27  1  0  0  0  0
 25 56  1  0  0  0  0
 26 28  2  0  0  0  0
 26 57  1  0  0  0  0
 27 29  2  0  0  0  0
 28 29  1  0  0  0  0
 28 59  1  0  0  0  0
 30 60  1  0  0  0  0
 30 61  1  0  0  0  0
 30 62  1  0  0  0  0
 31 63  1  0  0  0  0
 31 64  1  0  0  0  0
 31 65  1  0  0  0  0
 32 66  1  0  0  0  0
 32 67  1  0  0  0  0
 32 68  1  0  0  0  0
M  END
> <PUBCHEM_COMPOUND_CID>
70697263

> <PUBCHEM_CONFORMER_RMSD>
1.2

> <PUBCHEM_CONFORMER_DIVERSEORDER>
1
158
34
10
57
85
117
140
87
171
58
129
104
78
30
20
136
29
172
177
77
152
3
62
59
52
141
123
82
145
42
162
107
5
151
184
114
168
17
49
174
170
155
135
106
64
48
187
54
13
47
96
41
185
81
122
67
27
165
80
28
99
72
71
18
115
144
38
51
24
91
124
183
186
89
76
22
154
181
92
109
160
79
180
118
50
88
25
142
146
56
44
179
23
40
164
55
108
125
147
65
84
139
11
133
103
119
169
63
12
137
14
66
35
113
112
53
128
161
4
116
45
182
94
153
167
21
150
43
46
149
157
105
19
134
159
31
120
39
121
143
173
97
166
126
73
95
74
175
111
127
26
32
86
6
138
61
156
36
15
37
93
176
101
60
90
148
8
16
33
70
69
2
9
131
110
83
100
102
7
98
75
132
178
68
130
163

> <PUBCHEM_MMFF94_PARTIAL_CHARGES>
34
1 -0.53
11 -0.14
12 0.27
15 0.36
16 -0.15
17 -0.15
18 0.27
19 0.14
2 -0.36
20 0.27
21 0.08
22 -0.15
23 0.08
24 -0.14
25 -0.15
26 -0.15
27 0.08
28 -0.15
29 0.08
3 -0.36
30 0.28
31 0.28
32 0.28
4 -0.36
46 0.15
47 0.15
5 -0.81
55 0.15
56 0.15
57 0.15
58 0.45
59 0.15
6 -0.56
7 0.34

> <PUBCHEM_EFFECTIVE_ROTOR_COUNT>
12

> <PUBCHEM_PHARMACOPHORE_FEATURES>
10
1 1 donor
1 2 acceptor
1 3 acceptor
1 4 acceptor
1 5 cation
1 6 acceptor
3 8 13 14 hydrophobe
4 7 8 9 10 hydrophobe
6 11 16 17 21 22 23 rings
6 24 25 26 27 28 29 rings

> <PUBCHEM_HEAVY_ATOM_COUNT>
32

> <PUBCHEM_ATOM_DEF_STEREO_COUNT>
1

> <PUBCHEM_ATOM_UDEF_STEREO_COUNT>
0

> <PUBCHEM_BOND_DEF_STEREO_COUNT>
0

> <PUBCHEM_BOND_UDEF_STEREO_COUNT>
0

> <PUBCHEM_ISOTOPIC_ATOM_COUNT>
0

> <PUBCHEM_COMPONENT_COUNT>
1

> <PUBCHEM_CACTVS_TAUTO_COUNT>
3

> <PUBCHEM_CONFORMER_ID>
0436C12F00000001

> <PUBCHEM_MMFF94_ENERGY>
113.0214

> <PUBCHEM_FEATURE_SELFOVERLAP>
50.77

> <PUBCHEM_SHAPE_FINGERPRINT>
11135926 11 18195530517966906212
11513181 2 17701542805675154342
12788726 201 18269543949837199232
13402501 40 18412829087800261814
14394314 77 18270403780514998017
15351339 4 18192137210144359385
15361156 5 18058746701868293580
16067689 391 17412211780183481870
16112460 7 17985280581795142184
17627616 140 17831021221768178618
20764821 26 18267606704442543266
20775438 99 16906045365637766471
23559900 14 18268986652161550960
23572383 38 18411973694003937600
3027735 51 18121776136789302973
3383291 50 18339919415523020211
340366 18 17895194449777933749
3729539 64 18336255761522401629
4015057 19 18199456826570564849
437795 70 17338459786892053142
437795 96 17980183507628972496
4394409 98 17899667142667316768
4403749 210 16973054061910231873
463206 1 18410017671266017504
508706 21 18115016511005125399
613672 6 18413392038286744844

> <PUBCHEM_SHAPE_MULTIPOLES>
625.11
13.65
5.54
1.68
16.53
1
0.61
0.19
2.49
-0.85
-2.09
-2.57
0.18
1.8

> <PUBCHEM_SHAPE_SELFOVERLAP>
1287.675

> <PUBCHEM_SHAPE_VOLUME>
359.3

> <PUBCHEM_COORDINATE_TYPE>
2
5
10

$$$$