124
 OpenBabel03292022003D

171174  0  0  1  0  0  0  0  0999 V2000
    8.6107   -4.6615    4.2954 C   0  0  0  0  0  0  0  0  0  0  0  0
   10.0654   -4.5466    4.8004 C   0  0  0  0  0  0  0  0  0  0  0  0
   11.0229   -3.5951    3.9854 C   0  0  1  0  0  0  0  0  0  0  0  0
   10.5243   -3.6454    2.5473 C   0  0  0  0  0  0  0  0  0  0  0  0
   12.6034   -3.9294    4.2366 C   0  0  2  0  0  0  0  0  0  0  0  0
   13.7707   -2.8390    4.2009 N   0  0  0  0  0  0  0  0  0  0  0  0
   14.2754   -2.2365    5.3581 C   0  0  0  0  0  0  0  0  0  0  0  0
   13.5408   -2.4295    6.3325 O   0  0  0  0  0  0  0  0  0  0  0  0
   15.7623   -1.4032    5.6953 C   0  0  2  0  0  0  0  0  0  0  0  0
   15.6659   -0.0072    6.3557 C   0  0  0  0  0  0  0  0  0  0  0  0
   16.3087    0.9702    5.3483 C   0  0  0  0  0  0  0  0  0  0  0  0
   16.9095    0.0745    4.2698 C   0  0  0  0  0  0  0  0  0  0  0  0
   17.0618   -1.1788    4.9768 N   0  0  0  0  0  0  0  0  0  0  0  0
   18.3908   -1.2651    5.5456 C   0  0  0  0  0  0  0  0  0  0  0  0
   19.3686   -0.9346    4.8577 O   0  0  0  0  0  0  0  0  0  0  0  0
   18.6332   -1.6715    7.0467 C   0  0  2  0  0  0  0  0  0  0  0  0
   20.0537   -1.3580    7.6051 C   0  0  0  0  0  0  0  0  0  0  0  0
   20.4084    0.0063    8.1738 C   0  0  0  0  0  0  0  0  0  0  0  0
   19.7657    0.5208    9.3136 C   0  0  0  0  0  0  0  0  0  0  0  0
   20.2769    1.6424    9.9767 C   0  0  0  0  0  0  0  0  0  0  0  0
   21.4298    2.2704    9.5107 C   0  0  0  0  0  0  0  0  0  0  0  0
   22.0688    1.7842    8.3743 C   0  0  0  0  0  0  0  0  0  0  0  0
   21.5597    0.6635    7.7091 C   0  0  0  0  0  0  0  0  0  0  0  0
   18.2986   -3.1159    7.1807 N   0  0  0  0  0  0  0  0  0  0  0  0
   19.3736   -4.0971    7.1262 C   0  0  0  0  0  0  0  0  0  0  0  0
   17.1595   -3.3984    7.8850 C   0  0  0  0  0  0  0  0  0  0  0  0
   16.8452   -2.6316    8.7970 O   0  0  0  0  0  0  0  0  0  0  0  0
   16.2890   -4.6303    7.5452 C   0  0  2  0  0  0  0  0  0  0  0  0
   16.2299   -5.1785    6.0583 C   0  0  0  0  0  0  0  0  0  0  0  0
   17.2911   -4.9892    4.9825 C   0  0  0  0  0  0  0  0  0  0  0  0
   18.3687   -5.8581    4.8039 C   0  0  0  0  0  0  0  0  0  0  0  0
   19.3572   -5.6090    3.8345 C   0  0  0  0  0  0  0  0  0  0  0  0
   19.2681   -4.4921    2.9986 C   0  0  0  0  0  0  0  0  0  0  0  0
   18.1632   -3.6718    3.0971 C   0  0  0  0  0  0  0  0  0  0  0  0
   17.1780   -3.9458    4.0502 C   0  0  0  0  0  0  0  0  0  0  0  0
   14.8452   -4.3059    7.9421 N   0  0  0  0  0  0  0  0  0  0  0  0
   14.4731   -3.7299    9.1598 C   0  0  0  0  0  0  0  0  0  0  0  0
   14.3231   -4.4840   10.1229 O   0  0  0  0  0  0  0  0  0  0  0  0
   13.9381   -2.1972    9.1473 C   0  0  2  0  0  0  0  0  0  0  0  0
   14.1280   -1.4965   10.5385 C   0  0  0  0  0  0  0  0  0  0  0  0
   13.7521   -0.0075   10.4957 C   0  0  0  0  0  0  0  0  0  0  0  0
   15.5579   -1.5697   11.0867 C   0  0  0  0  0  0  0  0  0  0  0  0
   12.4743   -2.0913    8.7154 N   0  0  0  0  0  0  0  0  0  0  0  0
   11.5920   -3.1104    9.2440 C   0  0  0  0  0  0  0  0  0  0  0  0
   12.0518   -1.0459    7.8600 C   0  0  0  0  0  0  0  0  0  0  0  0
   12.7000    0.0078    7.7727 O   0  0  0  0  0  0  0  0  0  0  0  0
   10.8249   -1.1988    6.8513 C   0  0  1  0  0  0  0  0  0  0  0  0
    9.4668   -1.5487    7.5086 C   0  0  2  0  0  0  0  0  0  0  0  0
    8.3074   -1.6052    6.5099 C   0  0  0  0  0  0  0  0  0  0  0  0
    9.1090   -0.6052    8.6753 C   0  0  0  0  0  0  0  0  0  0  0  0
    8.0885   -1.2237    9.6270 C   0  0  0  0  0  0  0  0  0  0  0  0
   10.7134    0.0447    6.0296 O   0  0  0  0  0  0  0  0  0  0  0  0
   10.3866    0.0782    4.6903 C   0  0  0  0  0  0  0  0  0  0  0  0
    9.2488    0.3482    4.3158 O   0  0  0  0  0  0  0  0  0  0  0  0
   11.5844   -0.0202    3.6880 C   0  0  2  0  0  0  0  0  0  0  0  0
   12.6974    1.0240    3.9807 C   0  0  0  0  0  0  0  0  0  0  0  0
   13.7821    1.0819    2.8897 C   0  0  0  0  0  0  0  0  0  0  0  0
   12.2637    2.4474    4.3238 C   0  0  0  0  0  0  0  0  0  0  0  0
   13.3745    0.5286    5.1202 O   0  0  0  0  0  0  0  0  0  0  0  0
   11.2727   -0.1678    2.2080 N   0  0  0  0  0  0  0  0  0  0  0  0
   10.7209    1.0101    1.5552 C   0  0  0  0  0  0  0  0  0  0  0  0
   12.0038   -1.1202    1.4865 C   0  0  0  0  0  0  0  0  0  0  0  0
   13.0114   -1.6042    2.0197 O   0  0  0  0  0  0  0  0  0  0  0  0
   11.6577   -1.5995    0.0187 C   0  0  2  0  0  0  0  0  0  0  0  0
   10.2129   -2.0521   -0.3685 C   0  0  0  0  0  0  0  0  0  0  0  0
    9.0381   -1.0813   -0.1270 C   0  0  0  0  0  0  0  0  0  0  0  0
    9.0135    0.0748   -1.1339 C   0  0  0  0  0  0  0  0  0  0  0  0
    7.6784   -1.7870   -0.1725 C   0  0  0  0  0  0  0  0  0  0  0  0
   12.6599   -2.6840   -0.4453 N   0  0  0  0  0  0  0  0  0  0  0  0
   12.6905   -4.0236   -0.0651 C   0  0  0  0  0  0  0  0  0  0  0  0
   12.2435   -4.8356   -0.8800 O   0  0  0  0  0  0  0  0  0  0  0  0
   13.4561   -4.5051    1.2456 C   0  0  2  0  0  0  0  0  0  0  0  0
   14.8295   -5.1732    0.8897 C   0  0  0  0  0  0  0  0  0  0  0  0
   15.4284   -6.0256    2.0276 C   0  0  0  0  0  0  0  0  0  0  0  0
   15.8439   -4.0953    0.5061 C   0  0  0  0  0  0  0  0  0  0  0  0
   12.6811   -5.3963    2.1453 N   0  0  0  0  0  0  0  0  0  0  0  0
   12.1786   -6.6605    1.6054 C   0  0  0  0  0  0  0  0  0  0  0  0
   12.8348   -5.3122    3.5381 C   0  0  0  0  0  0  0  0  0  0  0  0
   12.9322   -6.3297    4.2345 O   0  0  0  0  0  0  0  0  0  0  0  0
    7.9806   -5.1588    5.0395 H   0  0  0  0  0  0  0  0  0  0  0  0
    8.5464   -5.2720    3.3855 H   0  0  0  0  0  0  0  0  0  0  0  0
    8.1623   -3.6884    4.0734 H   0  0  0  0  0  0  0  0  0  0  0  0
   10.4668   -5.5648    4.8133 H   0  0  0  0  0  0  0  0  0  0  0  0
   10.0400   -4.2071    5.8401 H   0  0  0  0  0  0  0  0  0  0  0  0
   10.8237   -2.5874    4.3265 H   0  0  0  0  0  0  0  0  0  0  0  0
   10.2591   -4.6512    2.2060 H   0  0  0  0  0  0  0  0  0  0  0  0
   11.2766   -3.2848    1.8802 H   0  0  0  0  0  0  0  0  0  0  0  0
    9.6358   -3.0181    2.4137 H   0  0  0  0  0  0  0  0  0  0  0  0
   12.6070   -4.2053    5.3006 H   0  0  0  0  0  0  0  0  0  0  0  0
   13.9411   -2.3646    3.3161 H   0  0  0  0  0  0  0  0  0  0  0  0
   16.0467   -2.0517    6.5048 H   0  0  0  0  0  0  0  0  0  0  0  0
   16.2815    0.0249    7.2617 H   0  0  0  0  0  0  0  0  0  0  0  0
   14.7058    0.3048    6.7310 H   0  0  0  0  0  0  0  0  0  0  0  0
   17.1010    1.5390    5.8518 H   0  0  0  0  0  0  0  0  0  0  0  0
   15.6159    1.7062    4.9432 H   0  0  0  0  0  0  0  0  0  0  0  0
   17.8399    0.4884    3.8712 H   0  0  0  0  0  0  0  0  0  0  0  0
   16.2380   -0.1051    3.4318 H   0  0  0  0  0  0  0  0  0  0  0  0
   17.9375   -1.0684    7.6300 H   0  0  0  0  0  0  0  0  0  0  0  0
   20.2313   -2.0093    8.4727 H   0  0  0  0  0  0  0  0  0  0  0  0
   20.8078   -1.6490    6.8646 H   0  0  0  0  0  0  0  0  0  0  0  0
   18.9031    0.0085    9.7394 H   0  0  0  0  0  0  0  0  0  0  0  0
   19.7933    2.0085   10.8790 H   0  0  0  0  0  0  0  0  0  0  0  0
   21.8442    3.1230   10.0451 H   0  0  0  0  0  0  0  0  0  0  0  0
   22.9819    2.2558    8.0203 H   0  0  0  0  0  0  0  0  0  0  0  0
   22.1053    0.2727    6.8531 H   0  0  0  0  0  0  0  0  0  0  0  0
   20.0272   -3.9811    7.9919 H   0  0  0  0  0  0  0  0  0  0  0  0
   19.9523   -3.9527    6.2117 H   0  0  0  0  0  0  0  0  0  0  0  0
   18.9853   -5.1127    7.2101 H   0  0  0  0  0  0  0  0  0  0  0  0
   16.6316   -5.4319    8.2124 H   0  0  0  0  0  0  0  0  0  0  0  0
   16.0627   -6.2632    6.1387 H   0  0  0  0  0  0  0  0  0  0  0  0
   15.2893   -4.8304    5.6126 H   0  0  0  0  0  0  0  0  0  0  0  0
   18.4643   -6.7462    5.4556 H   0  0  0  0  0  0  0  0  0  0  0  0
   20.2137   -6.2697    3.7373 H   0  0  0  0  0  0  0  0  0  0  0  0
   20.0459   -4.2800    2.2724 H   0  0  0  0  0  0  0  0  0  0  0  0
   18.0577   -2.8056    2.4465 H   0  0  0  0  0  0  0  0  0  0  0  0
   16.2941   -3.3231    4.0386 H   0  0  0  0  0  0  0  0  0  0  0  0
   14.3841   -5.2075    7.9585 H   0  0  0  0  0  0  0  0  0  0  0  0
   14.5381   -1.6487    8.4172 H   0  0  0  0  0  0  0  0  0  0  0  0
   13.4736   -1.9877   11.2688 H   0  0  0  0  0  0  0  0  0  0  0  0
   14.3100    0.5164    9.7109 H   0  0  0  0  0  0  0  0  0  0  0  0
   13.9852    0.4876   11.4445 H   0  0  0  0  0  0  0  0  0  0  0  0
   12.6815    0.1325   10.3240 H   0  0  0  0  0  0  0  0  0  0  0  0
   16.2527   -1.0014   10.4591 H   0  0  0  0  0  0  0  0  0  0  0  0
   15.9139   -2.5985   11.1788 H   0  0  0  0  0  0  0  0  0  0  0  0
   15.6064   -1.1276   12.0884 H   0  0  0  0  0  0  0  0  0  0  0  0
   12.0280   -3.5958   10.1197 H   0  0  0  0  0  0  0  0  0  0  0  0
   11.3850   -3.8525    8.4704 H   0  0  0  0  0  0  0  0  0  0  0  0
   10.6763   -2.6467    9.6018 H   0  0  0  0  0  0  0  0  0  0  0  0
   11.1072   -2.0018    6.1766 H   0  0  0  0  0  0  0  0  0  0  0  0
    9.5481   -2.5698    7.8894 H   0  0  0  0  0  0  0  0  0  0  0  0
    7.9370   -0.6092    6.2557 H   0  0  0  0  0  0  0  0  0  0  0  0
    7.4665   -2.1709    6.9258 H   0  0  0  0  0  0  0  0  0  0  0  0
    8.6087   -2.1074    5.5898 H   0  0  0  0  0  0  0  0  0  0  0  0
    8.7227    0.3448    8.2906 H   0  0  0  0  0  0  0  0  0  0  0  0
    9.9985   -0.3621    9.2654 H   0  0  0  0  0  0  0  0  0  0  0  0
    7.1323   -1.4114    9.1315 H   0  0  0  0  0  0  0  0  0  0  0  0
    7.9071   -0.5515   10.4712 H   0  0  0  0  0  0  0  0  0  0  0  0
    8.4521   -2.1735   10.0333 H   0  0  0  0  0  0  0  0  0  0  0  0
   11.9990   -0.9875    3.9684 H   0  0  0  0  0  0  0  0  0  0  0  0
   14.5452    1.8293    3.1221 H   0  0  0  0  0  0  0  0  0  0  0  0
   13.4043    1.3311    1.8968 H   0  0  0  0  0  0  0  0  0  0  0  0
   14.3099    0.1288    2.8246 H   0  0  0  0  0  0  0  0  0  0  0  0
   13.1038    2.9863    4.7823 H   0  0  0  0  0  0  0  0  0  0  0  0
   11.4628    2.4672    5.0669 H   0  0  0  0  0  0  0  0  0  0  0  0
   11.9482    3.0189    3.4504 H   0  0  0  0  0  0  0  0  0  0  0  0
   12.8335    0.6447    5.9346 H   0  0  0  0  0  0  0  0  0  0  0  0
   11.2634    1.9034    1.8561 H   0  0  0  0  0  0  0  0  0  0  0  0
    9.6728    1.1414    1.8267 H   0  0  0  0  0  0  0  0  0  0  0  0
   10.8580    0.9532    0.4806 H   0  0  0  0  0  0  0  0  0  0  0  0
   11.9217   -0.7468   -0.6185 H   0  0  0  0  0  0  0  0  0  0  0  0
   10.2197   -2.2901   -1.4428 H   0  0  0  0  0  0  0  0  0  0  0  0
    9.9842   -3.0069    0.1112 H   0  0  0  0  0  0  0  0  0  0  0  0
    9.1084   -0.6997    0.8891 H   0  0  0  0  0  0  0  0  0  0  0  0
    8.6038   -0.2425   -2.0983 H   0  0  0  0  0  0  0  0  0  0  0  0
   10.0062    0.4852   -1.3322 H   0  0  0  0  0  0  0  0  0  0  0  0
    8.3829    0.8896   -0.7582 H   0  0  0  0  0  0  0  0  0  0  0  0
    7.4707   -2.2029   -1.1628 H   0  0  0  0  0  0  0  0  0  0  0  0
    6.8778   -1.0771    0.0710 H   0  0  0  0  0  0  0  0  0  0  0  0
    7.6313   -2.5961    0.5630 H   0  0  0  0  0  0  0  0  0  0  0  0
   12.5474   -2.7332   -1.4521 H   0  0  0  0  0  0  0  0  0  0  0  0
   13.7030   -3.6284    1.8188 H   0  0  0  0  0  0  0  0  0  0  0  0
   14.6978   -5.8405    0.0294 H   0  0  0  0  0  0  0  0  0  0  0  0
   15.3815   -5.4952    2.9783 H   0  0  0  0  0  0  0  0  0  0  0  0
   16.4723   -6.2908    1.8362 H   0  0  0  0  0  0  0  0  0  0  0  0
   14.8974   -6.9719    2.1648 H   0  0  0  0  0  0  0  0  0  0  0  0
   15.5652   -3.6133   -0.4336 H   0  0  0  0  0  0  0  0  0  0  0  0
   16.8437   -4.5235    0.3795 H   0  0  0  0  0  0  0  0  0  0  0  0
   15.9020   -3.3212    1.2782 H   0  0  0  0  0  0  0  0  0  0  0  0
   12.9961   -7.3014    1.2729 H   0  0  0  0  0  0  0  0  0  0  0  0
   11.5046   -6.4631    0.7700 H   0  0  0  0  0  0  0  0  0  0  0  0
   11.6027   -7.1989    2.3663 H   0  0  0  0  0  0  0  0  0  0  0  0
  1  2  1  0  0  0  0
  1 80  1  0  0  0  0
  1 81  1  0  0  0  0
  1 82  1  0  0  0  0
  2  3  1  0  0  0  0
  2 83  1  0  0  0  0
  2 84  1  0  0  0  0
  3  4  1  0  0  0  0
  3 85  1  6  0  0  0
  4 86  1  0  0  0  0
  4 87  1  0  0  0  0
  4 88  1  0  0  0  0
  5  6  1  0  0  0  0
  5 78  1  0  0  0  0
  5  3  1  0  0  0  0
  5 89  1  1  0  0  0
  6  7  1  0  0  0  0
  6 90  1  0  0  0  0
  7  8  2  0  0  0  0
  7  9  1  0  0  0  0
  9 10  1  0  0  0  0
  9 13  1  0  0  0  0
  9 91  1  1  0  0  0
 10 11  1  0  0  0  0
 10 92  1  0  0  0  0
 10 93  1  0  0  0  0
 11 12  1  0  0  0  0
 11 94  1  0  0  0  0
 11 95  1  0  0  0  0
 12 13  1  0  0  0  0
 12 96  1  0  0  0  0
 12 97  1  0  0  0  0
 13 14  1  0  0  0  0
 14 15  2  0  0  0  0
 14 16  1  0  0  0  0
 16 24  1  0  0  0  0
 16 17  1  0  0  0  0
 16 98  1  1  0  0  0
 17 18  1  0  0  0  0
 17 99  1  0  0  0  0
 17100  1  0  0  0  0
 18 19  1  0  0  0  0
 18 23  2  0  0  0  0
 19 20  2  0  0  0  0
 19101  1  0  0  0  0
 20 21  1  0  0  0  0
 20102  1  0  0  0  0
 21 22  2  0  0  0  0
 21103  1  0  0  0  0
 22 23  1  0  0  0  0
 22104  1  0  0  0  0
 23105  1  0  0  0  0
 24 25  1  0  0  0  0
 24 26  1  0  0  0  0
 25106  1  0  0  0  0
 25107  1  0  0  0  0
 25108  1  0  0  0  0
 26 27  2  0  0  0  0
 26 28  1  0  0  0  0
 28 36  1  0  0  0  0
 28 29  1  0  0  0  0
 28109  1  1  0  0  0
 29 30  1  0  0  0  0
 29110  1  0  0  0  0
 29111  1  0  0  0  0
 30 31  1  0  0  0  0
 30 35  2  0  0  0  0
 31 32  2  0  0  0  0
 31112  1  0  0  0  0
 32 33  1  0  0  0  0
 32113  1  0  0  0  0
 33 34  2  0  0  0  0
 33114  1  0  0  0  0
 34 35  1  0  0  0  0
 34115  1  0  0  0  0
 35116  1  0  0  0  0
 36 37  1  0  0  0  0
 36117  1  0  0  0  0
 37 38  2  0  0  0  0
 37 39  1  0  0  0  0
 39 43  1  0  0  0  0
 39 40  1  0  0  0  0
 39118  1  6  0  0  0
 40 41  1  0  0  0  0
 40 42  1  0  0  0  0
 40119  1  0  0  0  0
 41120  1  0  0  0  0
 41121  1  0  0  0  0
 41122  1  0  0  0  0
 42123  1  0  0  0  0
 42124  1  0  0  0  0
 42125  1  0  0  0  0
 43 44  1  0  0  0  0
 43 45  1  0  0  0  0
 44126  1  0  0  0  0
 44127  1  0  0  0  0
 44128  1  0  0  0  0
 45 46  2  0  0  0  0
 45 47  1  0  0  0  0
 47 52  1  0  0  0  0
 47129  1  6  0  0  0
 48 50  1  0  0  0  0
 48 49  1  0  0  0  0
 48 47  1  0  0  0  0
 48130  1  1  0  0  0
 49131  1  0  0  0  0
 49132  1  0  0  0  0
 49133  1  0  0  0  0
 50 51  1  0  0  0  0
 50134  1  0  0  0  0
 50135  1  0  0  0  0
 51136  1  0  0  0  0
 51137  1  0  0  0  0
 51138  1  0  0  0  0
 52 53  1  0  0  0  0
 53 54  2  0  0  0  0
 53 55  1  0  0  0  0
 55 60  1  0  0  0  0
 55 56  1  0  0  0  0
 55139  1  1  0  0  0
 56 57  1  0  0  0  0
 56 58  1  0  0  0  0
 56 59  1  0  0  0  0
 57140  1  0  0  0  0
 57141  1  0  0  0  0
 57142  1  0  0  0  0
 58143  1  0  0  0  0
 58144  1  0  0  0  0
 58145  1  0  0  0  0
 59146  1  0  0  0  0
 60 61  1  0  0  0  0
 60 62  1  0  0  0  0
 61147  1  0  0  0  0
 61148  1  0  0  0  0
 61149  1  0  0  0  0
 62 63  2  0  0  0  0
 62 64  1  0  0  0  0
 64 69  1  0  0  0  0
 64 65  1  0  0  0  0
 64150  1  6  0  0  0
 65 66  1  0  0  0  0
 65151  1  0  0  0  0
 65152  1  0  0  0  0
 66 67  1  0  0  0  0
 66 68  1  0  0  0  0
 66153  1  0  0  0  0
 67154  1  0  0  0  0
 67155  1  0  0  0  0
 67156  1  0  0  0  0
 68157  1  0  0  0  0
 68158  1  0  0  0  0
 68159  1  0  0  0  0
 69 70  1  0  0  0  0
 69160  1  0  0  0  0
 70 71  2  0  0  0  0
 70 72  1  0  0  0  0
 72 76  1  0  0  0  0
 72 73  1  0  0  0  0
 72161  1  1  0  0  0
 73 74  1  0  0  0  0
 73 75  1  0  0  0  0
 73162  1  0  0  0  0
 74163  1  0  0  0  0
 74164  1  0  0  0  0
 74165  1  0  0  0  0
 75166  1  0  0  0  0
 75167  1  0  0  0  0
 75168  1  0  0  0  0
 76 77  1  0  0  0  0
 76 78  1  0  0  0  0
 77169  1  0  0  0  0
 77170  1  0  0  0  0
 77171  1  0  0  0  0
 78 79  2  0  0  0  0
M  END
>  <Energy>
534.114

$$$$