4
 OpenBabel04022011473D

119126  0  0  1  0  0  0  0  0999 V2000
    2.2915  -18.6051    0.3918 C   0  0  0  0  0  0  0  0  0  0  0  0
    3.3798  -18.0201   -0.5143 C   0  0  1  0  0  0  0  0  0  0  0  0
    3.4577  -16.5970   -0.3649 O   0  0  0  0  0  0  0  0  0  0  0  0
    2.3776  -15.8992   -0.9884 C   0  0  1  0  0  0  0  0  0  0  0  0
    2.4686  -14.5261   -0.5957 O   0  0  0  0  0  0  0  0  0  0  0  0
    1.3612  -13.6801   -0.9541 C   0  0  1  0  0  0  0  0  0  0  0  0
    0.0289  -14.2167   -0.3956 C   0  0  1  0  0  0  0  0  0  0  0  0
    0.1553  -14.5054    1.0015 O   0  0  0  0  0  0  0  0  0  0  0  0
   -1.0895  -13.2179   -0.5863 C   0  0  0  0  0  0  0  0  0  0  0  0
   -0.7153  -11.8700    0.0164 C   0  0  2  0  0  0  0  0  0  0  0  0
   -1.8291  -11.0287   -0.2625 O   0  0  0  0  0  0  0  0  0  0  0  0
   -1.8429   -9.7564    0.3932 C   0  0  1  0  0  0  0  0  0  0  0  0
   -0.7977   -8.7787   -0.1914 C   0  0  1  0  0  0  0  0  0  0  0  0
   -0.8484   -8.7590   -1.6240 O   0  0  0  0  0  0  0  0  0  0  0  0
   -1.0619   -7.3599    0.2886 C   0  0  0  0  0  0  0  0  0  0  0  0
   -2.5016   -6.9812   -0.0798 C   0  0  2  0  0  0  0  0  0  0  0  0
   -2.7950   -5.7316    0.4773 O   0  0  0  0  0  0  0  0  0  0  0  0
   -3.3052   -4.6852   -0.3116 C   0  0  1  0  0  0  0  0  0  0  0  0
   -3.4728   -4.7136   -1.8394 C   0  0  0  0  0  0  0  0  0  0  0  0
   -3.6507   -3.2784   -2.4263 C   0  0  0  0  0  0  0  0  0  0  0  0
   -3.8321   -2.1631   -1.3323 C   0  0  2  0  0  0  0  0  0  0  0  0
   -2.4148   -1.9239   -0.7024 C   0  0  0  0  0  0  0  0  0  0  0  0
   -4.3846   -0.8046   -1.9497 C   0  0  1  0  0  0  0  0  0  0  0  0
   -3.3698   -0.3123   -2.9334 C   0  0  0  0  0  0  0  0  0  0  0  0
   -3.2987    1.1538   -3.0508 C   0  0  1  0  0  0  0  0  0  0  0  0
   -3.9621    1.3218   -4.3677 O   0  0  0  0  0  0  0  0  0  0  0  0
   -3.5912    2.2844   -1.4972 C   0  0  2  0  0  0  0  0  0  0  0  0
   -4.2344    4.0896   -1.0729 C   0  0  0  0  0  0  0  0  0  0  0  0
   -2.4637    3.1217   -1.9076 C   0  0  1  0  0  0  0  0  0  0  0  0
   -1.3134    2.2100   -1.3787 C   0  0  0  0  0  0  0  0  0  0  0  0
   -0.0100    2.3031   -1.5837 C   0  0  0  0  0  0  0  0  0  0  0  0
    0.7108    1.3344   -0.7229 C   0  0  0  0  0  0  0  0  0  0  0  0
    1.8913    1.1625   -0.7078 O   0  0  0  0  0  0  0  0  0  0  0  0
   -0.2125    0.6942    0.0466 O   0  0  0  0  0  0  0  0  0  0  0  0
   -1.4876    1.2572   -0.2290 C   0  0  0  0  0  0  0  0  0  0  0  0
   -3.5255    3.4694   -3.2081 C   0  0  0  0  0  0  0  0  0  0  0  0
   -5.2028    2.6466   -2.7828 C   0  0  0  0  0  0  0  0  0  0  0  0
   -5.0224    1.8378   -1.3882 C   0  0  1  0  0  0  0  0  0  0  0  0
   -5.6448    2.3830   -0.2191 O   0  0  0  0  0  0  0  0  0  0  0  0
   -4.7965    0.2677   -0.9179 C   0  0  2  0  0  0  0  0  0  0  0  0
   -5.8353   -0.3280    0.0540 C   0  0  0  0  0  0  0  0  0  0  0  0
   -5.3446   -1.6538    0.6891 C   0  0  0  0  0  0  0  0  0  0  0  0
   -4.9153   -2.7031   -0.3454 C   0  0  2  0  0  0  0  0  0  0  0  0
   -4.5393   -4.0483    0.3246 C   0  0  0  0  0  0  0  0  0  0  0  0
   -3.3797   -7.8338    0.6130 O   0  0  0  0  0  0  0  0  0  0  0  0
   -3.2705   -9.1913    0.2350 C   0  0  2  0  0  0  0  0  0  0  0  0
   -4.2739   -9.8784    1.1584 C   0  0  0  0  0  0  0  0  0  0  0  0
    0.4789  -11.4009   -0.6121 O   0  0  0  0  0  0  0  0  0  0  0  0
    1.6024  -12.2634   -0.3748 C   0  0  2  0  0  0  0  0  0  0  0  0
    2.8228  -11.5991   -1.0065 C   0  0  0  0  0  0  0  0  0  0  0  0
    2.4946  -16.0801   -2.4950 C   0  0  0  0  0  0  0  0  0  0  0  0
    2.4081  -17.5535   -2.8633 C   0  0  2  0  0  0  0  0  0  0  0  0
    1.0465  -17.9871   -2.7404 O   0  0  0  0  0  0  0  0  0  0  0  0
    3.3133  -18.4452   -1.9987 C   0  0  2  0  0  0  0  0  0  0  0  0
    2.9124  -19.8102   -2.1498 O   0  0  0  0  0  0  0  0  0  0  0  0
    2.3318  -18.1417    1.3823 H   0  0  0  0  0  0  0  0  0  0  0  0
    2.4284  -19.6847    0.5128 H   0  0  0  0  0  0  0  0  0  0  0  0
    1.2878  -18.4359   -0.0018 H   0  0  0  0  0  0  0  0  0  0  0  0
    4.3269  -18.4078   -0.1169 H   0  0  0  0  0  0  0  0  0  0  0  0
    1.4466  -16.3171   -0.6030 H   0  0  0  0  0  0  0  0  0  0  0  0
    1.2947  -13.5986   -2.0472 H   0  0  0  0  0  0  0  0  0  0  0  0
   -0.2496  -15.1506   -0.8957 H   0  0  0  0  0  0  0  0  0  0  0  0
    1.0928  -14.7261    1.1732 H   0  0  0  0  0  0  0  0  0  0  0  0
   -2.0186  -13.5809   -0.1298 H   0  0  0  0  0  0  0  0  0  0  0  0
   -1.2867  -13.0939   -1.6588 H   0  0  0  0  0  0  0  0  0  0  0  0
   -0.5707  -11.9418    1.1013 H   0  0  0  0  0  0  0  0  0  0  0  0
   -1.6321   -9.8846    1.4633 H   0  0  0  0  0  0  0  0  0  0  0  0
    0.2122   -9.0839    0.1062 H   0  0  0  0  0  0  0  0  0  0  0  0
    0.0725   -8.7985   -1.9373 H   0  0  0  0  0  0  0  0  0  0  0  0
   -0.3507   -6.6567   -0.1620 H   0  0  0  0  0  0  0  0  0  0  0  0
   -0.9171   -7.3089    1.3763 H   0  0  0  0  0  0  0  0  0  0  0  0
   -2.6676   -7.0274   -1.1552 H   0  0  0  0  0  0  0  0  0  0  0  0
   -2.5027   -4.0240   -0.0814 H   0  0  0  0  0  0  0  0  0  0  0  0
   -4.3635   -5.3040   -2.0980 H   0  0  0  0  0  0  0  0  0  0  0  0
   -2.6351   -5.2047   -2.3454 H   0  0  0  0  0  0  0  0  0  0  0  0
   -4.5039   -3.2779   -3.1210 H   0  0  0  0  0  0  0  0  0  0  0  0
   -2.7737   -3.0512   -3.0471 H   0  0  0  0  0  0  0  0  0  0  0  0
   -1.8090   -1.1997   -1.2162 H   0  0  0  0  0  0  0  0  0  0  0  0
   -1.6930   -2.7448   -0.8503 H   0  0  0  0  0  0  0  0  0  0  0  0
   -2.4611   -1.6513    0.3641 H   0  0  0  0  0  0  0  0  0  0  0  0
   -5.3102   -1.0379   -2.4975 H   0  0  0  0  0  0  0  0  0  0  0  0
   -3.6200   -0.8139   -3.8982 H   0  0  0  0  0  0  0  0  0  0  0  0
   -2.3558   -0.6591   -2.8131 H   0  0  0  0  0  0  0  0  0  0  0  0
   -2.2501    1.3427   -3.3541 H   0  0  0  0  0  0  0  0  0  0  0  0
   -4.6738    0.6668   -4.4959 H   0  0  0  0  0  0  0  0  0  0  0  0
   -3.5608    4.9459   -1.2953 H   0  0  0  0  0  0  0  0  0  0  0  0
   -4.4522    4.2011   -0.0165 H   0  0  0  0  0  0  0  0  0  0  0  0
   -5.1052    4.4891   -1.6323 H   0  0  0  0  0  0  0  0  0  0  0  0
   -2.1874    3.9748   -1.2748 H   0  0  0  0  0  0  0  0  0  0  0  0
    0.5192    3.0005   -2.1987 H   0  0  0  0  0  0  0  0  0  0  0  0
   -1.9029    1.6878    0.6918 H   0  0  0  0  0  0  0  0  0  0  0  0
   -2.1239    0.4513   -0.5234 H   0  0  0  0  0  0  0  0  0  0  0  0
   -3.0552    3.1775   -4.1577 H   0  0  0  0  0  0  0  0  0  0  0  0
   -3.6752    4.5410   -3.3473 H   0  0  0  0  0  0  0  0  0  0  0  0
   -5.6515    2.0159   -3.5498 H   0  0  0  0  0  0  0  0  0  0  0  0
   -5.9750    3.4182   -2.7287 H   0  0  0  0  0  0  0  0  0  0  0  0
   -6.3371    3.0206   -0.4382 H   0  0  0  0  0  0  0  0  0  0  0  0
   -3.9621    0.3584   -0.2117 H   0  0  0  0  0  0  0  0  0  0  0  0
   -6.7832   -0.4910   -0.4698 H   0  0  0  0  0  0  0  0  0  0  0  0
   -6.0269    0.3522    0.8938 H   0  0  0  0  0  0  0  0  0  0  0  0
   -6.1473   -2.0637    1.3098 H   0  0  0  0  0  0  0  0  0  0  0  0
   -4.5086   -1.4472    1.3662 H   0  0  0  0  0  0  0  0  0  0  0  0
   -5.8139   -2.9091   -0.9494 H   0  0  0  0  0  0  0  0  0  0  0  0
   -5.3851   -4.7445    0.2336 H   0  0  0  0  0  0  0  0  0  0  0  0
   -4.3784   -3.9323    1.4019 H   0  0  0  0  0  0  0  0  0  0  0  0
   -3.6186   -9.2978   -0.8013 H   0  0  0  0  0  0  0  0  0  0  0  0
   -3.9465   -9.8044    2.2037 H   0  0  0  0  0  0  0  0  0  0  0  0
   -4.4124  -10.9277    0.9018 H   0  0  0  0  0  0  0  0  0  0  0  0
   -5.2414   -9.3606    1.1135 H   0  0  0  0  0  0  0  0  0  0  0  0
    1.7853  -12.3226    0.7051 H   0  0  0  0  0  0  0  0  0  0  0  0
    2.6701  -11.4403   -2.0797 H   0  0  0  0  0  0  0  0  0  0  0  0
    3.7306  -12.1923   -0.8627 H   0  0  0  0  0  0  0  0  0  0  0  0
    2.9847  -10.6091   -0.5648 H   0  0  0  0  0  0  0  0  0  0  0  0
    3.4556  -15.6741   -2.8332 H   0  0  0  0  0  0  0  0  0  0  0  0
    1.7055  -15.5240   -3.0118 H   0  0  0  0  0  0  0  0  0  0  0  0
    2.6753  -17.6755   -3.9201 H   0  0  0  0  0  0  0  0  0  0  0  0
    0.9359  -18.7096   -3.3895 H   0  0  0  0  0  0  0  0  0  0  0  0
    4.3274  -18.3564   -2.4048 H   0  0  0  0  0  0  0  0  0  0  0  0
    1.9809  -19.8581   -1.8561 H   0  0  0  0  0  0  0  0  0  0  0  0
  1  2  1  0  0  0  0
  1 56  1  0  0  0  0
  1 57  1  0  0  0  0
  1 58  1  0  0  0  0
  2  3  1  0  0  0  0
  2 54  1  0  0  0  0
  2 59  1  6  0  0  0
  3  4  1  0  0  0  0
  4 51  1  0  0  0  0
  4  5  1  0  0  0  0
  4 60  1  1  0  0  0
  5  6  1  0  0  0  0
  6  7  1  0  0  0  0
  6 49  1  0  0  0  0
  6 61  1  6  0  0  0
  7  8  1  0  0  0  0
  7  9  1  0  0  0  0
  7 62  1  6  0  0  0
  8 63  1  0  0  0  0
  9 10  1  0  0  0  0
  9 64  1  0  0  0  0
  9 65  1  0  0  0  0
 10 48  1  0  0  0  0
 10 11  1  0  0  0  0
 10 66  1  1  0  0  0
 11 12  1  0  0  0  0
 12 13  1  0  0  0  0
 12 46  1  0  0  0  0
 12 67  1  1  0  0  0
 13 14  1  0  0  0  0
 13 15  1  0  0  0  0
 13 68  1  1  0  0  0
 14 69  1  0  0  0  0
 15 16  1  0  0  0  0
 15 70  1  0  0  0  0
 15 71  1  0  0  0  0
 16 45  1  0  0  0  0
 16 17  1  0  0  0  0
 16 72  1  6  0  0  0
 18 19  1  0  0  0  0
 18 44  1  0  0  0  0
 18 17  1  0  0  0  0
 18 73  1  1  0  0  0
 19 20  1  0  0  0  0
 19 74  1  0  0  0  0
 19 75  1  0  0  0  0
 20 21  1  0  0  0  0
 20 76  1  0  0  0  0
 20 77  1  0  0  0  0
 21 23  1  0  0  0  0
 21 43  1  0  0  0  0
 21 22  1  6  0  0  0
 22 78  1  0  0  0  0
 22 79  1  0  0  0  0
 22 80  1  0  0  0  0
 23 24  1  0  0  0  0
 23 40  1  0  0  0  0
 23 81  1  1  0  0  0
 24 25  1  0  0  0  0
 24 82  1  0  0  0  0
 24 83  1  0  0  0  0
 25 27  1  0  0  0  0
 25 26  1  0  0  0  0
 25 84  1  6  0  0  0
 26 85  1  0  0  0  0
 27 29  1  0  0  0  0
 27 38  1  0  0  0  0
 27 28  1  6  0  0  0
 28 86  1  0  0  0  0
 28 87  1  0  0  0  0
 28 88  1  0  0  0  0
 29 36  1  0  0  0  0
 29 30  1  0  0  0  0
 29 89  1  1  0  0  0
 30 31  2  0  0  0  0
 30 35  1  0  0  0  0
 31 32  1  0  0  0  0
 31 90  1  0  0  0  0
 32 33  2  0  0  0  0
 32 34  1  0  0  0  0
 34 35  1  0  0  0  0
 35 91  1  0  0  0  0
 35 92  1  0  0  0  0
 36 37  1  0  0  0  0
 36 93  1  0  0  0  0
 36 94  1  0  0  0  0
 37 38  1  0  0  0  0
 37 95  1  0  0  0  0
 37 96  1  0  0  0  0
 38 40  1  0  0  0  0
 38 39  1  6  0  0  0
 39 97  1  0  0  0  0
 40 41  1  0  0  0  0
 40 98  1  6  0  0  0
 41 42  1  0  0  0  0
 41 99  1  0  0  0  0
 41100  1  0  0  0  0
 42 43  1  0  0  0  0
 42101  1  0  0  0  0
 42102  1  0  0  0  0
 43 44  1  0  0  0  0
 43103  1  6  0  0  0
 44104  1  0  0  0  0
 44105  1  0  0  0  0
 45 46  1  0  0  0  0
 46 47  1  0  0  0  0
 46106  1  6  0  0  0
 47107  1  0  0  0  0
 47108  1  0  0  0  0
 47109  1  0  0  0  0
 48 49  1  0  0  0  0
 49 50  1  0  0  0  0
 49110  1  1  0  0  0
 50111  1  0  0  0  0
 50112  1  0  0  0  0
 50113  1  0  0  0  0
 51 52  1  0  0  0  0
 51114  1  0  0  0  0
 51115  1  0  0  0  0
 52 53  1  0  0  0  0
 52 54  1  0  0  0  0
 52116  1  6  0  0  0
 53117  1  0  0  0  0
 54 55  1  0  0  0  0
 54118  1  6  0  0  0
 55119  1  0  0  0  0
M  END
>  <Energy>
652.952

$$$$