3955
  -OEChem-03242010103D

 67 70  0     0  0  0  0  0  0999 V2000
    9.4863    1.4097    0.3868 Cl  0  0  0  0  0  0  0  0  0  0  0  0
    3.8280   -1.9095    0.7297 O   0  0  0  0  0  0  0  0  0  0  0  0
   -4.4042   -0.4860   -2.0520 O   0  0  0  0  0  0  0  0  0  0  0  0
    0.9732   -0.2168   -0.6960 N   0  0  0  0  0  0  0  0  0  0  0  0
   -2.8834    1.1154   -2.6417 N   0  0  0  0  0  0  0  0  0  0  0  0
    3.7970   -0.5999    0.1428 C   0  0  0  0  0  0  0  0  0  0  0  0
    3.3233   -0.7055   -1.3253 C   0  0  0  0  0  0  0  0  0  0  0  0
    2.7724    0.2462    0.9311 C   0  0  0  0  0  0  0  0  0  0  0  0
    1.8498   -1.1110   -1.4588 C   0  0  0  0  0  0  0  0  0  0  0  0
    1.3258   -0.2194    0.7280 C   0  0  0  0  0  0  0  0  0  0  0  0
   -0.4283   -0.5939   -0.8780 C   0  0  0  0  0  0  0  0  0  0  0  0
   -1.3407    0.4149   -0.1620 C   0  0  0  0  0  0  0  0  0  0  0  0
   -2.8894    0.1390   -0.2345 C   0  0  0  0  0  0  0  0  0  0  0  0
    5.2383   -0.0916    0.2059 C   0  0  0  0  0  0  0  0  0  0  0  0
   -3.0626   -1.3098    0.3582 C   0  0  0  0  0  0  0  0  0  0  0  0
   -3.7366    1.1434    0.6055 C   0  0  0  0  0  0  0  0  0  0  0  0
   -3.4414    0.2222   -1.7208 C   0  0  0  0  0  0  0  0  0  0  0  0
    6.2476   -0.7761   -0.4695 C   0  0  0  0  0  0  0  0  0  0  0  0
    5.5401    1.0560    0.9375 C   0  0  0  0  0  0  0  0  0  0  0  0
   -3.3002   -1.4047    1.6890 C   0  0  0  0  0  0  0  0  0  0  0  0
   -5.0814    0.9354    0.6669 C   0  0  0  0  0  0  0  0  0  0  0  0
   -2.9596   -2.3450   -0.5102 C   0  0  0  0  0  0  0  0  0  0  0  0
   -3.0758    2.1626    1.2219 C   0  0  0  0  0  0  0  0  0  0  0  0
    7.5617   -0.3120   -0.4132 C   0  0  0  0  0  0  0  0  0  0  0  0
    6.8543    1.5202    0.9936 C   0  0  0  0  0  0  0  0  0  0  0  0
    7.8651    0.8361    0.3184 C   0  0  0  0  0  0  0  0  0  0  0  0
   -3.4531   -2.6878    2.2142 C   0  0  0  0  0  0  0  0  0  0  0  0
   -5.8392    1.8340    1.4178 C   0  0  0  0  0  0  0  0  0  0  0  0
   -3.1127   -3.6282    0.0148 C   0  0  0  0  0  0  0  0  0  0  0  0
   -3.8335    3.0611    1.9730 C   0  0  0  0  0  0  0  0  0  0  0  0
   -2.3049    2.4232   -2.3595 C   0  0  0  0  0  0  0  0  0  0  0  0
   -2.9411    0.7806   -4.0614 C   0  0  0  0  0  0  0  0  0  0  0  0
   -3.3594   -3.7996    1.3770 C   0  0  0  0  0  0  0  0  0  0  0  0
   -5.2152    2.8968    2.0708 C   0  0  0  0  0  0  0  0  0  0  0  0
    3.4721    0.2584   -1.8313 H   0  0  0  0  0  0  0  0  0  0  0  0
    3.9130   -1.4502   -1.8736 H   0  0  0  0  0  0  0  0  0  0  0  0
    2.9911    0.2027    2.0061 H   0  0  0  0  0  0  0  0  0  0  0  0
    2.8253    1.2980    0.6191 H   0  0  0  0  0  0  0  0  0  0  0  0
    1.5861   -1.0649   -2.5229 H   0  0  0  0  0  0  0  0  0  0  0  0
    1.7185   -2.1547   -1.1455 H   0  0  0  0  0  0  0  0  0  0  0  0
    1.1699   -1.2063    1.1812 H   0  0  0  0  0  0  0  0  0  0  0  0
    0.7403    0.5008    1.3040 H   0  0  0  0  0  0  0  0  0  0  0  0
   -0.6725   -0.6001   -1.9462 H   0  0  0  0  0  0  0  0  0  0  0  0
   -0.5597   -1.6087   -0.4944 H   0  0  0  0  0  0  0  0  0  0  0  0
   -1.0671    1.4173   -0.4936 H   0  0  0  0  0  0  0  0  0  0  0  0
   -1.1119    0.3785    0.9084 H   0  0  0  0  0  0  0  0  0  0  0  0
    2.9559   -2.3235    0.6307 H   0  0  0  0  0  0  0  0  0  0  0  0
    6.0369   -1.6792   -1.0350 H   0  0  0  0  0  0  0  0  0  0  0  0
    4.7955    1.6203    1.4874 H   0  0  0  0  0  0  0  0  0  0  0  0
   -3.3349   -0.5724    2.3807 H   0  0  0  0  0  0  0  0  0  0  0  0
   -5.5850    0.1129    0.1718 H   0  0  0  0  0  0  0  0  0  0  0  0
   -2.7377   -2.2473   -1.5659 H   0  0  0  0  0  0  0  0  0  0  0  0
   -2.0109    2.3439    1.1823 H   0  0  0  0  0  0  0  0  0  0  0  0
    8.3397   -0.8565   -0.9423 H   0  0  0  0  0  0  0  0  0  0  0  0
    7.0771    2.4154    1.5688 H   0  0  0  0  0  0  0  0  0  0  0  0
   -3.6342   -2.8224    3.2766 H   0  0  0  0  0  0  0  0  0  0  0  0
   -6.9149    1.7053    1.4954 H   0  0  0  0  0  0  0  0  0  0  0  0
   -3.0317   -4.4945   -0.6352 H   0  0  0  0  0  0  0  0  0  0  0  0
   -3.3486    3.8894    2.4815 H   0  0  0  0  0  0  0  0  0  0  0  0
   -2.5286    2.7541   -1.3485 H   0  0  0  0  0  0  0  0  0  0  0  0
   -2.7391    3.1560   -3.0475 H   0  0  0  0  0  0  0  0  0  0  0  0
   -1.2251    2.3793   -2.5253 H   0  0  0  0  0  0  0  0  0  0  0  0
   -1.9481    0.9158   -4.5001 H   0  0  0  0  0  0  0  0  0  0  0  0
   -3.2544   -0.2563   -4.2122 H   0  0  0  0  0  0  0  0  0  0  0  0
   -3.6569    1.4467   -4.5518 H   0  0  0  0  0  0  0  0  0  0  0  0
   -3.4741   -4.7989    1.7866 H   0  0  0  0  0  0  0  0  0  0  0  0
   -5.8051    3.5963    2.6558 H   0  0  0  0  0  0  0  0  0  0  0  0
  1 26  1  0  0  0  0
  2  6  1  0  0  0  0
  2 47  1  0  0  0  0
  3 17  2  0  0  0  0
  4  9  1  0  0  0  0
  4 10  1  0  0  0  0
  4 11  1  0  0  0  0
  5 17  1  0  0  0  0
  5 31  1  0  0  0  0
  5 32  1  0  0  0  0
  6  7  1  0  0  0  0
  6  8  1  0  0  0  0
  6 14  1  0  0  0  0
  7  9  1  0  0  0  0
  7 35  1  0  0  0  0
  7 36  1  0  0  0  0
  8 10  1  0  0  0  0
  8 37  1  0  0  0  0
  8 38  1  0  0  0  0
  9 39  1  0  0  0  0
  9 40  1  0  0  0  0
 10 41  1  0  0  0  0
 10 42  1  0  0  0  0
 11 12  1  0  0  0  0
 11 43  1  0  0  0  0
 11 44  1  0  0  0  0
 12 13  1  0  0  0  0
 12 45  1  0  0  0  0
 12 46  1  0  0  0  0
 13 15  1  0  0  0  0
 13 16  1  0  0  0  0
 13 17  1  0  0  0  0
 14 18  2  0  0  0  0
 14 19  1  0  0  0  0
 15 20  2  0  0  0  0
 15 22  1  0  0  0  0
 16 21  2  0  0  0  0
 16 23  1  0  0  0  0
 18 24  1  0  0  0  0
 18 48  1  0  0  0  0
 19 25  2  0  0  0  0
 19 49  1  0  0  0  0
 20 27  1  0  0  0  0
 20 50  1  0  0  0  0
 21 28  1  0  0  0  0
 21 51  1  0  0  0  0
 22 29  2  0  0  0  0
 22 52  1  0  0  0  0
 23 30  2  0  0  0  0
 23 53  1  0  0  0  0
 24 26  2  0  0  0  0
 24 54  1  0  0  0  0
 25 26  1  0  0  0  0
 25 55  1  0  0  0  0
 27 33  2  0  0  0  0
 27 56  1  0  0  0  0
 28 34  2  0  0  0  0
 28 57  1  0  0  0  0
 29 33  1  0  0  0  0
 29 58  1  0  0  0  0
 30 34  1  0  0  0  0
 30 59  1  0  0  0  0
 31 60  1  0  0  0  0
 31 61  1  0  0  0  0
 31 62  1  0  0  0  0
 32 63  1  0  0  0  0
 32 64  1  0  0  0  0
 32 65  1  0  0  0  0
 33 66  1  0  0  0  0
 34 67  1  0  0  0  0
M  END
> <PUBCHEM_COMPOUND_CID>
3955

> <PUBCHEM_CONFORMER_RMSD>
1

> <PUBCHEM_CONFORMER_DIVERSEORDER>
1
30
36
12
13
26
32
17
39
37
24
31
21
33
16
28
15
7
27
19
18
29
14
42
43
25
11
10
22
8
40
4
35
6
2
41
5
38
23
34
3
20
9

> <PUBCHEM_MMFF94_PARTIAL_CHARGES>
46
1 -0.18
10 0.27
11 0.27
13 0.35
14 -0.14
15 -0.14
16 -0.14
17 0.57
18 -0.15
19 -0.15
2 -0.68
20 -0.15
21 -0.15
22 -0.15
23 -0.15
24 -0.15
25 -0.15
26 0.18
27 -0.15
28 -0.15
29 -0.15
3 -0.57
30 -0.15
31 0.3
32 0.3
33 -0.15
34 -0.15
4 -0.81
47 0.4
48 0.15
49 0.15
5 -0.66
50 0.15
51 0.15
52 0.15
53 0.15
54 0.15
55 0.15
56 0.15
57 0.15
58 0.15
59 0.15
6 0.42
66 0.15
67 0.15
9 0.27

> <PUBCHEM_EFFECTIVE_ROTOR_COUNT>
9.2

> <PUBCHEM_PHARMACOPHORE_FEATURES>
8
1 2 acceptor
1 2 donor
1 3 acceptor
1 4 cation
6 14 18 19 24 25 26 rings
6 15 20 22 27 29 33 rings
6 16 21 23 28 30 34 rings
6 4 6 7 8 9 10 rings

> <PUBCHEM_HEAVY_ATOM_COUNT>
34

> <PUBCHEM_ATOM_DEF_STEREO_COUNT>
0

> <PUBCHEM_ATOM_UDEF_STEREO_COUNT>
0

> <PUBCHEM_BOND_DEF_STEREO_COUNT>
0

> <PUBCHEM_BOND_UDEF_STEREO_COUNT>
0

> <PUBCHEM_ISOTOPIC_ATOM_COUNT>
0

> <PUBCHEM_COMPONENT_COUNT>
1

> <PUBCHEM_CACTVS_TAUTO_COUNT>
1

> <PUBCHEM_CONFORMER_ID>
00000F7300000001

> <PUBCHEM_MMFF94_ENERGY>
133.0937

> <PUBCHEM_FEATURE_SELFOVERLAP>
40.597

> <PUBCHEM_SHAPE_FINGERPRINT>
10290309 65 17896877655956016738
10816530 145 18259990370460293113
10930396 42 17603585240466675105
11135926 11 18337384942942988202
11315181 36 18410570721097781575
11434127 23 18272369814906152598
12082328 90 18060699498990835172
12895837 130 17632577136839308377
13631057 29 18189049961708715162
14068700 675 18192155017680674623
14856354 85 18341905116062650933
15021287 119 16225768540945789494
15183329 4 14476965588979636540
15361156 5 17917990581470308888
15513586 35 17753341055994084876
1577012 14 17775279449074848828
16114785 44 18202009794397332307
17780758 139 18408609188195947163
17980427 26 17766842724408578047
20771845 165 16557923194924590101
21033648 144 18335695018871018886
21033648 29 18127717958208287187
21756936 100 18272653416059843129
21927370 108 17459199645655925827
23523787 8 14331700178445440293
32027 91 17753596954952991106
3383291 50 18337685191348545795
4073 2 18341620313230480554
44802255 64 17531515526120942591
4616759 239 18412259562763679450
469060 322 17095533911421020507
4938544 92 18341058470639825323
5080951 261 18187075191569695163
5104073 3 18334574625529403730
5364581 5 18269560605683664424
59755656 520 18339645534116547275
7288768 16 18268999691924094387
9953998 17 18260550039274270096

> <PUBCHEM_SHAPE_MULTIPOLES>
679.87
20.41
3.39
2.58
54.86
1.39
2.47
-9.01
-5.88
-6.77
-2.05
-4.82
-0.9
0.61

> <PUBCHEM_SHAPE_SELFOVERLAP>
1453.663

> <PUBCHEM_SHAPE_VOLUME>
377

> <PUBCHEM_COORDINATE_TYPE>
2
5
10

$$$$