70682634
  -OEChem-03242010103D

 66 68  0     1  0  0  0  0  0999 V2000
    4.4810   -0.2831   -1.3988 O   0  0  0  0  0  0  0  0  0  0  0  0
    4.3909    1.9231    0.2923 O   0  0  0  0  0  0  0  0  0  0  0  0
   -0.2541    1.8885   -1.5693 O   0  0  0  0  0  0  0  0  0  0  0  0
   -0.2291    3.4726    0.7144 O   0  0  0  0  0  0  0  0  0  0  0  0
   -3.6492   -1.6513   -0.4490 N   0  0  2  0  0  0  0  0  0  0  0  0
    1.1635   -3.9512    2.3926 N   0  0  0  0  0  0  0  0  0  0  0  0
    0.5478   -2.1932    0.5269 C   0  0  1  0  0  0  0  0  0  0  0  0
    0.8960   -2.7474   -0.8806 C   0  0  0  0  0  0  0  0  0  0  0  0
    1.4732   -1.0010    0.5841 C   0  0  0  0  0  0  0  0  0  0  0  0
   -0.9340   -1.8264    0.6205 C   0  0  0  0  0  0  0  0  0  0  0  0
    2.3655   -2.3838   -1.1519 C   0  0  0  0  0  0  0  0  0  0  0  0
    2.4951   -1.1148   -0.3707 C   0  0  0  0  0  0  0  0  0  0  0  0
   -1.8200   -3.0479    0.3944 C   0  0  0  0  0  0  0  0  0  0  0  0
    1.4286    0.0911    1.4396 C   0  0  0  0  0  0  0  0  0  0  0  0
    3.4863   -0.1532   -0.4820 C   0  0  0  0  0  0  0  0  0  0  0  0
   -3.2972   -2.6800    0.5226 C   0  0  0  0  0  0  0  0  0  0  0  0
    0.8925   -3.1775    1.5715 C   0  0  0  0  0  0  0  0  0  0  0  0
    3.4391    0.9498    0.3718 C   0  0  0  0  0  0  0  0  0  0  0  0
    2.4174    1.0714    1.3254 C   0  0  0  0  0  0  0  0  0  0  0  0
   -4.8232   -0.8998   -0.0018 C   0  0  0  0  0  0  0  0  0  0  0  0
   -3.8981   -2.2470   -1.7629 C   0  0  0  0  0  0  0  0  0  0  0  0
   -4.8517    0.4950   -0.6274 C   0  0  0  0  0  0  0  0  0  0  0  0
    5.6615   -0.9720   -0.9857 C   0  0  0  0  0  0  0  0  0  0  0  0
   -3.6182    1.2864   -0.2721 C   0  0  0  0  0  0  0  0  0  0  0  0
    4.1315    3.0102   -0.5930 C   0  0  0  0  0  0  0  0  0  0  0  0
   -2.4897    1.2235   -1.0895 C   0  0  0  0  0  0  0  0  0  0  0  0
   -3.6061    2.0822    0.8734 C   0  0  0  0  0  0  0  0  0  0  0  0
   -1.3490    1.9565   -0.7615 C   0  0  0  0  0  0  0  0  0  0  0  0
   -2.4653    2.8149    1.2016 C   0  0  0  0  0  0  0  0  0  0  0  0
   -1.3369    2.7521    0.3841 C   0  0  0  0  0  0  0  0  0  0  0  0
   -0.3494    1.0519   -2.7205 C   0  0  0  0  0  0  0  0  0  0  0  0
   -0.2987    4.2605    1.9014 C   0  0  0  0  0  0  0  0  0  0  0  0
    0.7341   -3.8270   -0.9820 H   0  0  0  0  0  0  0  0  0  0  0  0
    0.2790   -2.2561   -1.6469 H   0  0  0  0  0  0  0  0  0  0  0  0
   -1.1610   -1.3892    1.6023 H   0  0  0  0  0  0  0  0  0  0  0  0
   -1.1549   -1.0543   -0.1223 H   0  0  0  0  0  0  0  0  0  0  0  0
    2.5458   -2.2409   -2.2211 H   0  0  0  0  0  0  0  0  0  0  0  0
    3.0434   -3.1461   -0.7548 H   0  0  0  0  0  0  0  0  0  0  0  0
   -1.6285   -3.5054   -0.5813 H   0  0  0  0  0  0  0  0  0  0  0  0
   -1.6114   -3.8210    1.1431 H   0  0  0  0  0  0  0  0  0  0  0  0
    0.6494    0.1903    2.1878 H   0  0  0  0  0  0  0  0  0  0  0  0
   -3.4426   -2.3194    1.5497 H   0  0  0  0  0  0  0  0  0  0  0  0
   -3.9267   -3.5733    0.4215 H   0  0  0  0  0  0  0  0  0  0  0  0
    2.3919    1.9327    1.9885 H   0  0  0  0  0  0  0  0  0  0  0  0
   -5.7561   -1.4357   -0.2190 H   0  0  0  0  0  0  0  0  0  0  0  0
   -4.8002   -0.7588    1.0874 H   0  0  0  0  0  0  0  0  0  0  0  0
   -3.0071   -2.7570   -2.1430 H   0  0  0  0  0  0  0  0  0  0  0  0
   -4.1382   -1.4824   -2.5089 H   0  0  0  0  0  0  0  0  0  0  0  0
   -4.7221   -2.9700   -1.7431 H   0  0  0  0  0  0  0  0  0  0  0  0
   -5.7408    1.0305   -0.2695 H   0  0  0  0  0  0  0  0  0  0  0  0
   -4.9657    0.4478   -1.7170 H   0  0  0  0  0  0  0  0  0  0  0  0
    6.3559   -0.9964   -1.8299 H   0  0  0  0  0  0  0  0  0  0  0  0
    5.4267   -2.0008   -0.6957 H   0  0  0  0  0  0  0  0  0  0  0  0
    6.1405   -0.4471   -0.1533 H   0  0  0  0  0  0  0  0  0  0  0  0
    4.9787    3.6998   -0.5468 H   0  0  0  0  0  0  0  0  0  0  0  0
    3.2267    3.5457   -0.2880 H   0  0  0  0  0  0  0  0  0  0  0  0
    4.0269    2.6524   -1.6222 H   0  0  0  0  0  0  0  0  0  0  0  0
   -2.5585    0.5991   -1.9734 H   0  0  0  0  0  0  0  0  0  0  0  0
   -4.4789    2.1371    1.5187 H   0  0  0  0  0  0  0  0  0  0  0  0
   -2.5275    3.4101    2.1061 H   0  0  0  0  0  0  0  0  0  0  0  0
    0.6137    1.1077   -3.2387 H   0  0  0  0  0  0  0  0  0  0  0  0
   -1.1093    1.4148   -3.4208 H   0  0  0  0  0  0  0  0  0  0  0  0
   -0.5006    0.0024   -2.4478 H   0  0  0  0  0  0  0  0  0  0  0  0
   -1.0593    5.0445    1.8218 H   0  0  0  0  0  0  0  0  0  0  0  0
   -0.4333    3.6367    2.7917 H   0  0  0  0  0  0  0  0  0  0  0  0
    0.6675    4.7642    2.0101 H   0  0  0  0  0  0  0  0  0  0  0  0
  1 15  1  0  0  0  0
  1 23  1  0  0  0  0
  2 18  1  0  0  0  0
  2 25  1  0  0  0  0
  3 28  1  0  0  0  0
  3 31  1  0  0  0  0
  4 30  1  0  0  0  0
  4 32  1  0  0  0  0
  5 16  1  0  0  0  0
  5 20  1  0  0  0  0
  5 21  1  0  0  0  0
  6 17  3  0  0  0  0
  7  8  1  0  0  0  0
  7  9  1  0  0  0  0
  7 10  1  0  0  0  0
  7 17  1  0  0  0  0
  8 11  1  0  0  0  0
  8 33  1  0  0  0  0
  8 34  1  0  0  0  0
  9 12  2  0  0  0  0
  9 14  1  0  0  0  0
 10 13  1  0  0  0  0
 10 35  1  0  0  0  0
 10 36  1  0  0  0  0
 11 12  1  0  0  0  0
 11 37  1  0  0  0  0
 11 38  1  0  0  0  0
 12 15  1  0  0  0  0
 13 16  1  0  0  0  0
 13 39  1  0  0  0  0
 13 40  1  0  0  0  0
 14 19  2  0  0  0  0
 14 41  1  0  0  0  0
 15 18  2  0  0  0  0
 16 42  1  0  0  0  0
 16 43  1  0  0  0  0
 18 19  1  0  0  0  0
 19 44  1  0  0  0  0
 20 22  1  0  0  0  0
 20 45  1  0  0  0  0
 20 46  1  0  0  0  0
 21 47  1  0  0  0  0
 21 48  1  0  0  0  0
 21 49  1  0  0  0  0
 22 24  1  0  0  0  0
 22 50  1  0  0  0  0
 22 51  1  0  0  0  0
 23 52  1  0  0  0  0
 23 53  1  0  0  0  0
 23 54  1  0  0  0  0
 24 26  2  0  0  0  0
 24 27  1  0  0  0  0
 25 55  1  0  0  0  0
 25 56  1  0  0  0  0
 25 57  1  0  0  0  0
 26 28  1  0  0  0  0
 26 58  1  0  0  0  0
 27 29  2  0  0  0  0
 27 59  1  0  0  0  0
 28 30  2  0  0  0  0
 29 30  1  0  0  0  0
 29 60  1  0  0  0  0
 31 61  1  0  0  0  0
 31 62  1  0  0  0  0
 31 63  1  0  0  0  0
 32 64  1  0  0  0  0
 32 65  1  0  0  0  0
 32 66  1  0  0  0  0
M  END
> <PUBCHEM_COMPOUND_CID>
70682634

> <PUBCHEM_CONFORMER_RMSD>
1.2

> <PUBCHEM_CONFORMER_DIVERSEORDER>
1
5
63
91
11
13
31
101
144
12
24
67
71
34
62
110
84
18
60
122
74
96
94
72
10
102
90
6
61
137
58
73
142
2
140
64
32
47
43
115
46
53
141
92
39
17
65
8
9
99
50
121
129
98
139
124
19
7
103
20
45
59
130
16
82
118
108
55
42
22
95
75
126
117
69
134
25
128
106
28
112
51
77
56
37
133
100
35
86
131
93
81
114
113
3
123
136
109
14
40
52
26
4
104
68
30
76
120
79
38
135
125
27
88
21
83
107
78
138
54
44
48
70
80
97
41
119
29
15
127
111
116
33
23
132
85
49
143
105
66
89
57
36
87

> <PUBCHEM_MMFF94_PARTIAL_CHARGES>
34
1 -0.36
11 0.14
12 -0.14
14 -0.15
15 0.08
16 0.27
17 0.36
18 0.08
19 -0.15
2 -0.36
20 0.27
21 0.27
22 0.14
23 0.28
24 -0.14
25 0.28
26 -0.15
27 -0.15
28 0.08
29 -0.15
3 -0.36
30 0.08
31 0.28
32 0.28
4 -0.36
41 0.15
44 0.15
5 -0.81
58 0.15
59 0.15
6 -0.56
60 0.15
7 0.34
9 -0.14

> <PUBCHEM_EFFECTIVE_ROTOR_COUNT>
11.6

> <PUBCHEM_PHARMACOPHORE_FEATURES>
9
1 1 acceptor
1 2 acceptor
1 3 acceptor
1 4 acceptor
1 5 cation
1 6 acceptor
5 7 8 9 11 12 rings
6 24 26 27 28 29 30 rings
6 9 12 14 15 18 19 rings

> <PUBCHEM_HEAVY_ATOM_COUNT>
32

> <PUBCHEM_ATOM_DEF_STEREO_COUNT>
1

> <PUBCHEM_ATOM_UDEF_STEREO_COUNT>
0

> <PUBCHEM_BOND_DEF_STEREO_COUNT>
0

> <PUBCHEM_BOND_UDEF_STEREO_COUNT>
0

> <PUBCHEM_ISOTOPIC_ATOM_COUNT>
0

> <PUBCHEM_COMPONENT_COUNT>
1

> <PUBCHEM_CACTVS_TAUTO_COUNT>
1

> <PUBCHEM_CONFORMER_ID>
0436880A00000001

> <PUBCHEM_MMFF94_ENERGY>
121.3384

> <PUBCHEM_FEATURE_SELFOVERLAP>
45.763

> <PUBCHEM_SHAPE_FINGERPRINT>
10006869 2 18266740174260160131
10498660 4 18335697235111040551
11513181 2 17769092689326859183
11578080 2 14906250082670686337
12156800 1 17479513053984796713
12633257 1 17693089670202075193
12788726 201 18198056980990846361
13122387 1 17836078971187541947
13402501 40 18340205296829480499
14081887 123 18340477903068042079
14279260 333 18128257784190389758
14363568 33 17328598722183719153
14725015 67 17974555099201030155
14787075 74 18267015231811925549
14840074 17 17676215671245906589
14955137 171 18122360222540636171
20600515 1 17752755012027769110
20764821 26 18410860966497833680
23559900 14 18342734079068715428
3052486 1 18114466746564372742
3493558 16 17463987022077147164
392239 28 18412827992599724689
469060 322 17167870768248089191
6287921 2 18338248071854164996

> <PUBCHEM_SHAPE_MULTIPOLES>
625.11
9.01
5.28
1.86
1.96
0.87
-0.2
0.29
-2.77
-0.88
2.39
0.19
-0.13
-0.65

> <PUBCHEM_SHAPE_SELFOVERLAP>
1317.949

> <PUBCHEM_SHAPE_VOLUME>
354.2

> <PUBCHEM_COORDINATE_TYPE>
2
5
10

$$$$