11596524
  -OEChem-03242010103D

 60 66  0     1  0  0  0  0  0999 V2000
   -1.9952    3.2578   -0.7751 O   0  0  0  0  0  0  0  0  0  0  0  0
    1.9662   -3.2234    0.7090 O   0  0  0  0  0  0  0  0  0  0  0  0
    0.9134    1.4161    0.8058 N   0  0  0  0  0  0  0  0  0  0  0  0
   -0.9169   -1.3700   -0.8744 N   0  0  0  0  0  0  0  0  0  0  0  0
   -1.0698    1.0572   -0.6841 C   0  0  0  0  0  0  0  0  0  0  0  0
    1.0621   -1.0141    0.6150 C   0  0  0  0  0  0  0  0  0  0  0  0
    0.8997    0.2878   -1.3570 C   0  0  0  0  0  0  0  0  0  0  0  0
   -0.8990   -0.2398    1.2905 C   0  0  0  0  0  0  0  0  0  0  0  0
    0.4019    1.5354   -0.5582 C   0  0  2  0  0  0  0  0  0  0  0  0
   -0.5795   -0.1312   -1.5728 C   0  0  1  0  0  0  0  0  0  0  0  0
    0.5821    0.1759    1.5024 C   0  0  2  0  0  0  0  0  0  0  0  0
   -0.4115   -1.4876    0.4908 C   0  0  1  0  0  0  0  0  0  0  0  0
   -1.8442    0.7584    0.6055 C   0  0  2  0  0  0  0  0  0  0  0  0
    1.8407   -0.7122   -0.6742 C   0  0  1  0  0  0  0  0  0  0  0  0
   -1.8349    2.0719   -1.5309 C   0  0  0  0  0  0  0  0  0  0  0  0
    1.8249   -2.0322    1.4601 C   0  0  0  0  0  0  0  0  0  0  0  0
   -3.2444    0.1929    0.4156 C   0  0  0  0  0  0  0  0  0  0  0  0
    3.2483   -0.2052   -0.3952 C   0  0  0  0  0  0  0  0  0  0  0  0
    0.7063    2.6072    1.6103 C   0  0  0  0  0  0  0  0  0  0  0  0
   -0.7098   -2.5637   -1.6752 C   0  0  0  0  0  0  0  0  0  0  0  0
   -3.5626   -0.5011   -0.7510 C   0  0  0  0  0  0  0  0  0  0  0  0
    4.3199   -1.0971   -0.3834 C   0  0  0  0  0  0  0  0  0  0  0  0
   -4.2071    0.3700    1.4082 C   0  0  0  0  0  0  0  0  0  0  0  0
    3.4644    1.1503   -0.1516 C   0  0  0  0  0  0  0  0  0  0  0  0
   -4.8461   -1.0189   -0.9253 C   0  0  0  0  0  0  0  0  0  0  0  0
    5.6100   -0.6325   -0.1273 C   0  0  0  0  0  0  0  0  0  0  0  0
   -5.4905   -0.1481    1.2341 C   0  0  0  0  0  0  0  0  0  0  0  0
    4.7545    1.6150    0.1044 C   0  0  0  0  0  0  0  0  0  0  0  0
   -5.8099   -0.8424    0.0673 C   0  0  0  0  0  0  0  0  0  0  0  0
    5.8272    0.7234    0.1166 C   0  0  0  0  0  0  0  0  0  0  0  0
    1.3438    0.5922   -2.3181 H   0  0  0  0  0  0  0  0  0  0  0  0
   -1.3373   -0.5429    2.2547 H   0  0  0  0  0  0  0  0  0  0  0  0
    0.6473    2.4812   -1.0568 H   0  0  0  0  0  0  0  0  0  0  0  0
   -0.8979   -0.0902   -2.6216 H   0  0  0  0  0  0  0  0  0  0  0  0
    0.9168    0.1349    2.5456 H   0  0  0  0  0  0  0  0  0  0  0  0
   -0.6845   -2.4228    0.9935 H   0  0  0  0  0  0  0  0  0  0  0  0
   -1.9429    1.6563    1.2225 H   0  0  0  0  0  0  0  0  0  0  0  0
    1.9392   -1.5952   -1.3132 H   0  0  0  0  0  0  0  0  0  0  0  0
   -2.8174    1.7354   -1.8700 H   0  0  0  0  0  0  0  0  0  0  0  0
   -1.2770    2.3377   -2.4368 H   0  0  0  0  0  0  0  0  0  0  0  0
    1.2877   -2.2822    2.3836 H   0  0  0  0  0  0  0  0  0  0  0  0
    2.8107   -1.6806    1.7754 H   0  0  0  0  0  0  0  0  0  0  0  0
   -0.3393    2.7994    1.8575 H   0  0  0  0  0  0  0  0  0  0  0  0
    1.2624    2.5325    2.5517 H   0  0  0  0  0  0  0  0  0  0  0  0
    1.0945    3.4930    1.0947 H   0  0  0  0  0  0  0  0  0  0  0  0
   -1.1248   -3.4414   -1.1667 H   0  0  0  0  0  0  0  0  0  0  0  0
   -1.2419   -2.4826   -2.6298 H   0  0  0  0  0  0  0  0  0  0  0  0
    0.3383   -2.7733   -1.8963 H   0  0  0  0  0  0  0  0  0  0  0  0
   -2.7669    3.1405   -0.1958 H   0  0  0  0  0  0  0  0  0  0  0  0
    1.0928   -3.6408    0.6281 H   0  0  0  0  0  0  0  0  0  0  0  0
   -2.9382   -0.5965   -1.6226 H   0  0  0  0  0  0  0  0  0  0  0  0
    4.1700   -2.1547   -0.5814 H   0  0  0  0  0  0  0  0  0  0  0  0
   -3.9697    0.9078    2.3221 H   0  0  0  0  0  0  0  0  0  0  0  0
    2.7540    1.9427   -0.3032 H   0  0  0  0  0  0  0  0  0  0  0  0
   -5.1041   -1.5380   -1.8441 H   0  0  0  0  0  0  0  0  0  0  0  0
    6.4459   -1.3259   -0.1220 H   0  0  0  0  0  0  0  0  0  0  0  0
   -6.2415   -0.0098    2.0065 H   0  0  0  0  0  0  0  0  0  0  0  0
    4.9315    2.6759    0.2572 H   0  0  0  0  0  0  0  0  0  0  0  0
   -6.8109   -1.2405   -0.0709 H   0  0  0  0  0  0  0  0  0  0  0  0
    6.8330    1.0867    0.3066 H   0  0  0  0  0  0  0  0  0  0  0  0
  1 15  1  0  0  0  0
  1 49  1  0  0  0  0
  2 16  1  0  0  0  0
  2 50  1  0  0  0  0
  3  9  1  0  0  0  0
  3 11  1  0  0  0  0
  3 19  1  0  0  0  0
  4 10  1  0  0  0  0
  4 12  1  0  0  0  0
  4 20  1  0  0  0  0
  5  9  1  0  0  0  0
  5 10  1  0  0  0  0
  5 13  1  0  0  0  0
  5 15  1  0  0  0  0
  6 11  1  0  0  0  0
  6 12  1  0  0  0  0
  6 14  1  0  0  0  0
  6 16  1  0  0  0  0
  7  9  1  0  0  0  0
  7 10  1  0  0  0  0
  7 14  1  0  0  0  0
  7 31  1  0  0  0  0
  8 11  1  0  0  0  0
  8 12  1  0  0  0  0
  8 13  1  0  0  0  0
  8 32  1  0  0  0  0
  9 33  1  0  0  0  0
 10 34  1  0  0  0  0
 11 35  1  0  0  0  0
 12 36  1  0  0  0  0
 13 17  1  0  0  0  0
 13 37  1  0  0  0  0
 14 18  1  0  0  0  0
 14 38  1  0  0  0  0
 15 39  1  0  0  0  0
 15 40  1  0  0  0  0
 16 41  1  0  0  0  0
 16 42  1  0  0  0  0
 17 21  2  0  0  0  0
 17 23  1  0  0  0  0
 18 22  2  0  0  0  0
 18 24  1  0  0  0  0
 19 43  1  0  0  0  0
 19 44  1  0  0  0  0
 19 45  1  0  0  0  0
 20 46  1  0  0  0  0
 20 47  1  0  0  0  0
 20 48  1  0  0  0  0
 21 25  1  0  0  0  0
 21 51  1  0  0  0  0
 22 26  1  0  0  0  0
 22 52  1  0  0  0  0
 23 27  2  0  0  0  0
 23 53  1  0  0  0  0
 24 28  2  0  0  0  0
 24 54  1  0  0  0  0
 25 29  2  0  0  0  0
 25 55  1  0  0  0  0
 26 30  2  0  0  0  0
 26 56  1  0  0  0  0
 27 29  1  0  0  0  0
 27 57  1  0  0  0  0
 28 30  1  0  0  0  0
 28 58  1  0  0  0  0
 29 59  1  0  0  0  0
 30 60  1  0  0  0  0
M  END
> <PUBCHEM_COMPOUND_CID>
11596524

> <PUBCHEM_CONFORMER_RMSD>
0.8

> <PUBCHEM_CONFORMER_DIVERSEORDER>
1
2

> <PUBCHEM_MMFF94_PARTIAL_CHARGES>
38
1 -0.68
10 0.21
11 0.21
12 0.21
13 0.14
14 0.14
15 0.28
16 0.28
17 -0.14
18 -0.14
19 0.27
2 -0.68
20 0.27
21 -0.15
22 -0.15
23 -0.15
24 -0.15
25 -0.15
26 -0.15
27 -0.15
28 -0.15
29 -0.15
3 -0.69
30 -0.15
4 -0.69
49 0.4
50 0.4
51 0.15
52 0.15
53 0.15
54 0.15
55 0.15
56 0.15
57 0.15
58 0.15
59 0.15
60 0.15
9 0.21

> <PUBCHEM_EFFECTIVE_ROTOR_COUNT>
4.8

> <PUBCHEM_PHARMACOPHORE_FEATURES>
14
1 1 acceptor
1 1 donor
1 2 acceptor
1 2 donor
1 3 cation
1 4 cation
4 5 7 9 10 rings
4 6 8 11 12 rings
6 17 21 23 25 27 29 rings
6 18 22 24 26 28 30 rings
6 3 5 8 9 11 13 rings
6 3 6 7 9 11 14 rings
6 4 5 8 10 12 13 rings
6 4 6 7 10 12 14 rings

> <PUBCHEM_HEAVY_ATOM_COUNT>
30

> <PUBCHEM_ATOM_DEF_STEREO_COUNT>
2

> <PUBCHEM_ATOM_UDEF_STEREO_COUNT>
4

> <PUBCHEM_BOND_DEF_STEREO_COUNT>
0

> <PUBCHEM_BOND_UDEF_STEREO_COUNT>
0

> <PUBCHEM_ISOTOPIC_ATOM_COUNT>
0

> <PUBCHEM_COMPONENT_COUNT>
1

> <PUBCHEM_CACTVS_TAUTO_COUNT>
1

> <PUBCHEM_CONFORMER_ID>
00B0F2EC00000001

> <PUBCHEM_MMFF94_ENERGY>
155.4916

> <PUBCHEM_FEATURE_SELFOVERLAP>
84.484

> <PUBCHEM_SHAPE_FINGERPRINT>
10863032 1 17824539664956810556
10906281 52 17488202532653871340
10948715 1 18411984624558289574
11135609 12 17169570699430062403
11578080 2 17823971234942059917
11963148 33 17749389316620424955
12011746 2 18040714779406543683
12236239 1 18202849854754454995
12403814 3 18411979173917951477
12592029 89 18334858286438453442
13140716 1 17897738788203136288
13782708 43 17896038759276789202
14787075 74 18411984680387771664
14790565 3 18202289103840347553
14840074 17 18335986440738799031
14856354 85 16988566839953649925
14955137 171 15913333515255681848
15209289 33 17846779624507637671
1601671 61 17203614761273540681
16945 1 17968678054356205189
17349148 13 16805333175254762060
17980427 23 17386020437513276421
18393751 57 18042399313484344208
18681886 176 17561075956220415147
19319366 153 18335977640894699834
20691752 17 18120350284665668263
21521721 280 18336553823262019544
23402539 116 18113621179352223269
23559900 14 17240772842607657580
23569914 152 17108153856291851367
23569914 2 16983732158109127336
3178227 256 18199482102869515491
3383291 50 17967805008830468730
3493558 16 17416407790789117673
350125 39 18272652359392893305
404807 14 15977833951507784910
4340502 62 18186810192003227131
469060 322 18041856029311043112
5104073 3 18042960978941779528
6086070 43 18059557080767015521

> <PUBCHEM_SHAPE_MULTIPOLES>
595.69
10.41
2.54
1.56
0.25
0.17
0.03
-0.69
0.9
0.56
-0.1
-0.77
0.01
-0.16

> <PUBCHEM_SHAPE_SELFOVERLAP>
1360.786

> <PUBCHEM_SHAPE_VOLUME>
304.1

> <PUBCHEM_COORDINATE_TYPE>
2
5
10

$$$$