2950589
  -OEChem-03242010103D

 50 52  0     1  0  0  0  0  0999 V2000
   -4.7604    2.6281    0.1438 O   0  0  0  0  0  0  0  0  0  0  0  0
   -2.0040    2.2637    0.1636 O   0  0  0  0  0  0  0  0  0  0  0  0
    4.3126    2.1683   -0.0501 O   0  0  0  0  0  0  0  0  0  0  0  0
   -3.5893   -0.8884    0.2660 N   0  0  0  0  0  0  0  0  0  0  0  0
   -4.3553   -1.4626   -0.8491 C   0  0  0  0  0  0  0  0  0  0  0  0
   -3.4892   -1.8357    1.3852 C   0  0  0  0  0  0  0  0  0  0  0  0
   -3.7066   -2.7506   -1.3589 C   0  0  0  0  0  0  0  0  0  0  0  0
   -2.8124   -3.1359    0.9485 C   0  0  0  0  0  0  0  0  0  0  0  0
   -3.5355   -3.7671   -0.2359 C   0  0  0  0  0  0  0  0  0  0  0  0
   -4.1955    0.3662    0.7106 C   0  0  0  0  0  0  0  0  0  0  0  0
   -4.1871    1.4307   -0.3890 C   0  0  2  0  0  0  0  0  0  0  0  0
   -2.7878    1.7515   -0.9097 C   0  0  0  0  0  0  0  0  0  0  0  0
   -0.6591    2.0097    0.1189 C   0  0  0  0  0  0  0  0  0  0  0  0
    0.0591    1.8881    1.3037 C   0  0  0  0  0  0  0  0  0  0  0  0
   -0.0234    1.8776   -1.1108 C   0  0  0  0  0  0  0  0  0  0  0  0
    2.0732    1.4975    0.0281 C   0  0  0  0  0  0  0  0  0  0  0  0
    1.4294    1.6313    1.2581 C   0  0  0  0  0  0  0  0  0  0  0  0
    1.3468    1.6206   -1.1564 C   0  0  0  0  0  0  0  0  0  0  0  0
    3.5021    1.2304   -0.0187 C   0  0  0  0  0  0  0  0  0  0  0  0
    4.0575   -0.1566   -0.0307 C   0  0  0  0  0  0  0  0  0  0  0  0
    3.1814   -1.2162    0.0038 C   0  0  0  0  0  0  0  0  0  0  0  0
    5.4226   -0.3178   -0.0754 C   0  0  0  0  0  0  0  0  0  0  0  0
    3.7000   -2.5111   -0.0071 C   0  0  0  0  0  0  0  0  0  0  0  0
    5.9413   -1.6126   -0.0864 C   0  0  0  0  0  0  0  0  0  0  0  0
    5.0799   -2.7092   -0.0522 C   0  0  0  0  0  0  0  0  0  0  0  0
   -4.3870   -0.7885   -1.7097 H   0  0  0  0  0  0  0  0  0  0  0  0
   -5.3923   -1.6650   -0.5501 H   0  0  0  0  0  0  0  0  0  0  0  0
   -4.4816   -2.0583    1.7989 H   0  0  0  0  0  0  0  0  0  0  0  0
   -2.8906   -1.3959    2.1921 H   0  0  0  0  0  0  0  0  0  0  0  0
   -4.3193   -3.1835   -2.1578 H   0  0  0  0  0  0  0  0  0  0  0  0
   -2.7264   -2.5205   -1.7961 H   0  0  0  0  0  0  0  0  0  0  0  0
   -2.7902   -3.8414    1.7867 H   0  0  0  0  0  0  0  0  0  0  0  0
   -1.7695   -2.9324    0.6737 H   0  0  0  0  0  0  0  0  0  0  0  0
   -2.9770   -4.6372   -0.5976 H   0  0  0  0  0  0  0  0  0  0  0  0
   -4.5206   -4.1265    0.0858 H   0  0  0  0  0  0  0  0  0  0  0  0
   -3.6528    0.7555    1.5827 H   0  0  0  0  0  0  0  0  0  0  0  0
   -5.2268    0.2117    1.0575 H   0  0  0  0  0  0  0  0  0  0  0  0
   -4.8343    1.1509   -1.2245 H   0  0  0  0  0  0  0  0  0  0  0  0
   -2.3575    0.8485   -1.3587 H   0  0  0  0  0  0  0  0  0  0  0  0
   -2.8577    2.5347   -1.6740 H   0  0  0  0  0  0  0  0  0  0  0  0
   -4.1792    2.9430    0.8573 H   0  0  0  0  0  0  0  0  0  0  0  0
   -0.4390    1.9910    2.2636 H   0  0  0  0  0  0  0  0  0  0  0  0
   -0.5447    1.9983   -2.0556 H   0  0  0  0  0  0  0  0  0  0  0  0
    1.9852    1.5374    2.1875 H   0  0  0  0  0  0  0  0  0  0  0  0
    1.8401    1.5253   -2.1204 H   0  0  0  0  0  0  0  0  0  0  0  0
    2.1035   -1.1021    0.0392 H   0  0  0  0  0  0  0  0  0  0  0  0
    6.1126    0.5196   -0.1024 H   0  0  0  0  0  0  0  0  0  0  0  0
    3.0297   -3.3653    0.0195 H   0  0  0  0  0  0  0  0  0  0  0  0
    7.0158   -1.7673   -0.1215 H   0  0  0  0  0  0  0  0  0  0  0  0
    5.4837   -3.7174   -0.0607 H   0  0  0  0  0  0  0  0  0  0  0  0
  1 11  1  0  0  0  0
  1 41  1  0  0  0  0
  2 12  1  0  0  0  0
  2 13  1  0  0  0  0
  3 19  2  0  0  0  0
  4  5  1  0  0  0  0
  4  6  1  0  0  0  0
  4 10  1  0  0  0  0
  5  7  1  0  0  0  0
  5 26  1  0  0  0  0
  5 27  1  0  0  0  0
  6  8  1  0  0  0  0
  6 28  1  0  0  0  0
  6 29  1  0  0  0  0
  7  9  1  0  0  0  0
  7 30  1  0  0  0  0
  7 31  1  0  0  0  0
  8  9  1  0  0  0  0
  8 32  1  0  0  0  0
  8 33  1  0  0  0  0
  9 34  1  0  0  0  0
  9 35  1  0  0  0  0
 10 11  1  0  0  0  0
 10 36  1  0  0  0  0
 10 37  1  0  0  0  0
 11 12  1  0  0  0  0
 11 38  1  0  0  0  0
 12 39  1  0  0  0  0
 12 40  1  0  0  0  0
 13 14  2  0  0  0  0
 13 15  1  0  0  0  0
 14 17  1  0  0  0  0
 14 42  1  0  0  0  0
 15 18  2  0  0  0  0
 15 43  1  0  0  0  0
 16 17  2  0  0  0  0
 16 18  1  0  0  0  0
 16 19  1  0  0  0  0
 17 44  1  0  0  0  0
 18 45  1  0  0  0  0
 19 20  1  0  0  0  0
 20 21  2  0  0  0  0
 20 22  1  0  0  0  0
 21 23  1  0  0  0  0
 21 46  1  0  0  0  0
 22 24  2  0  0  0  0
 22 47  1  0  0  0  0
 23 25  2  0  0  0  0
 23 48  1  0  0  0  0
 24 25  1  0  0  0  0
 24 49  1  0  0  0  0
 25 50  1  0  0  0  0
M  END
> <PUBCHEM_COMPOUND_CID>
2950589

> <PUBCHEM_CONFORMER_RMSD>
0.8

> <PUBCHEM_CONFORMER_DIVERSEORDER>
1
22
32
67
130
40
57
27
83
97
87
41
84
11
119
46
64
78
35
65
101
74
59
123
4
63
99
42
9
58
28
66
77
114
120
103
117
109
71
86
70
75
13
62
48
107
16
43
104
37
49
88
108
106
20
122
10
116
89
51
61
60
47
19
115
7
34
95
72
44
85
124
125
80
55
29
118
94
100
33
69
39
76
96
90
12
23
102
105
2
92
68
52
36
127
18
3
73
112
31
8
54
113
24
50
128
93
82
110
126
15
5
25
131
14
17
98
21
38
53
132
81
79
91
111
129
121
30
26
56
6
45

> <PUBCHEM_MMFF94_PARTIAL_CHARGES>
32
1 -0.68
10 0.27
11 0.28
12 0.28
13 0.08
14 -0.15
15 -0.15
16 0.09
17 -0.15
18 -0.15
19 0.4
2 -0.36
20 0.09
21 -0.15
22 -0.15
23 -0.15
24 -0.15
25 -0.15
3 -0.57
4 -0.81
41 0.4
42 0.15
43 0.15
44 0.15
45 0.15
46 0.15
47 0.15
48 0.15
49 0.15
5 0.27
50 0.15
6 0.27

> <PUBCHEM_EFFECTIVE_ROTOR_COUNT>
8.2

> <PUBCHEM_PHARMACOPHORE_FEATURES>
8
1 1 acceptor
1 1 donor
1 2 acceptor
1 3 acceptor
1 4 cation
6 13 14 15 16 17 18 rings
6 20 21 22 23 24 25 rings
6 4 5 6 7 8 9 rings

> <PUBCHEM_HEAVY_ATOM_COUNT>
25

> <PUBCHEM_ATOM_DEF_STEREO_COUNT>
0

> <PUBCHEM_ATOM_UDEF_STEREO_COUNT>
1

> <PUBCHEM_BOND_DEF_STEREO_COUNT>
0

> <PUBCHEM_BOND_UDEF_STEREO_COUNT>
0

> <PUBCHEM_ISOTOPIC_ATOM_COUNT>
0

> <PUBCHEM_COMPONENT_COUNT>
1

> <PUBCHEM_CACTVS_TAUTO_COUNT>
1

> <PUBCHEM_CONFORMER_ID>
002D05BD00000001

> <PUBCHEM_MMFF94_ENERGY>
69.6128

> <PUBCHEM_FEATURE_SELFOVERLAP>
40.601

> <PUBCHEM_SHAPE_FINGERPRINT>
107951 10 17313952888452981249
10928967 22 17909846649188352343
11135609 12 18115036315304828401
11135609 99 18193555563861879798
11136131 41 18190168161772696866
11186622 123 18261385663632296786
11211813 140 17680404686073335762
11552529 35 17987520480133078489
11796584 16 18272092656313259756
12104220 4 11751102411088270871
12596602 18 14835536104046222894
12633257 1 17201942524911208635
13103583 49 17703240580244888897
13402501 40 18339643339203811455
13583140 156 17916577773300210081
14251751 18 18410013213189560550
14866123 147 18412267251372563539
14910302 57 18337096930477329297
15250474 111 18410291445165354182
15322534 239 18260547792732847515
15799311 1 18337127708249726980
19141452 34 18336267838453895573
19315092 285 16984902313891216827
20775530 9 18337107964037394435
21315759 227 17533500285757463059
23379529 103 18340211787095121422
23559900 14 18410569583296127224
25122255 55 18201165339054282678
3246872 21 17693370453326106966
338550 245 18261399940250852790
4073 2 18411134762384814080
44062 13 18410294705172229555
46194498 28 17098897458707505695
463206 1 18335987480257839594
508706 21 18261106387720987307
5309563 4 17762341714251497351
5365585 94 18115592693900699731
56633871 153 18193850464642425723
6431902 208 18337389460652439086
6433294 58 18264768749289331666
6437827 68 18410856516764203502
7970288 3 17833553771078892691
9709674 26 18334860553679986720

> <PUBCHEM_SHAPE_MULTIPOLES>
491.9
13.23
4.48
1.14
7.23
2.67
-0.06
7.64
0.66
-2.93
0.09
-0.87
0
0.07

> <PUBCHEM_SHAPE_SELFOVERLAP>
1041.906

> <PUBCHEM_SHAPE_VOLUME>
275.4

> <PUBCHEM_COORDINATE_TYPE>
2
5
10

$$$$