59051184
  -OEChem-03242010103D

 49 50  0     1  0  0  0  0  0999 V2000
   -2.3652   -0.7389    0.2409 O   0  0  0  0  0  0  0  0  0  0  0  0
   -3.2738   -3.3609    0.4172 O   0  0  0  0  0  0  0  0  0  0  0  0
   -0.3967    0.4051    2.1840 O   0  0  0  0  0  0  0  0  0  0  0  0
    0.2799   -2.9389   -0.5333 N   0  0  0  0  0  0  0  0  0  0  0  0
   -2.1955   -3.0286   -0.4619 C   0  0  2  0  0  0  0  0  0  0  0  0
   -0.8799   -3.2875    0.2761 C   0  0  0  0  0  0  0  0  0  0  0  0
   -2.3624   -1.5782   -0.9097 C   0  0  0  0  0  0  0  0  0  0  0  0
    1.5151   -3.1410    0.2118 C   0  0  0  0  0  0  0  0  0  0  0  0
    2.7194   -2.7609   -0.6458 C   0  0  0  0  0  0  0  0  0  0  0  0
   -2.4919    0.6066    0.0205 C   0  0  0  0  0  0  0  0  0  0  0  0
   -1.5011    1.4965    0.4349 C   0  0  0  0  0  0  0  0  0  0  0  0
    4.0245   -2.9836    0.1026 C   0  0  0  0  0  0  0  0  0  0  0  0
   -0.3034    1.0194    1.1121 C   0  0  0  0  0  0  0  0  0  0  0  0
    1.0670    1.2405    0.5622 C   0  0  0  0  0  0  0  0  0  0  0  0
   -3.6316    1.0840   -0.6269 C   0  0  0  0  0  0  0  0  0  0  0  0
   -1.6499    2.8638    0.2022 C   0  0  0  0  0  0  0  0  0  0  0  0
   -3.7804    2.4512   -0.8598 C   0  0  0  0  0  0  0  0  0  0  0  0
   -2.7895    3.3411   -0.4453 C   0  0  0  0  0  0  0  0  0  0  0  0
    1.2604    1.3261   -0.8166 C   0  0  0  0  0  0  0  0  0  0  0  0
    2.1543    1.3609    1.4277 C   0  0  0  0  0  0  0  0  0  0  0  0
    3.6280    1.6522   -0.4642 C   0  0  0  0  0  0  0  0  0  0  0  0
    2.5409    1.5319   -1.3298 C   0  0  0  0  0  0  0  0  0  0  0  0
    3.4348    1.5668    0.9145 C   0  0  0  0  0  0  0  0  0  0  0  0
    4.9972    1.8724   -1.0136 C   0  0  0  0  0  0  0  0  0  0  0  0
   -2.2624   -3.6902   -1.3338 H   0  0  0  0  0  0  0  0  0  0  0  0
   -0.8422   -4.3462    0.5640 H   0  0  0  0  0  0  0  0  0  0  0  0
   -0.8766   -2.7202    1.2161 H   0  0  0  0  0  0  0  0  0  0  0  0
   -3.3211   -1.4890   -1.4334 H   0  0  0  0  0  0  0  0  0  0  0  0
   -1.5623   -1.2762   -1.5955 H   0  0  0  0  0  0  0  0  0  0  0  0
    1.5126   -2.5224    1.1176 H   0  0  0  0  0  0  0  0  0  0  0  0
    1.6040   -4.1897    0.5207 H   0  0  0  0  0  0  0  0  0  0  0  0
    0.2889   -3.5008   -1.3839 H   0  0  0  0  0  0  0  0  0  0  0  0
    2.7315   -3.3584   -1.5655 H   0  0  0  0  0  0  0  0  0  0  0  0
    2.6520   -1.7086   -0.9451 H   0  0  0  0  0  0  0  0  0  0  0  0
    4.8747   -2.7055   -0.5281 H   0  0  0  0  0  0  0  0  0  0  0  0
    4.1408   -4.0344    0.3862 H   0  0  0  0  0  0  0  0  0  0  0  0
    4.0634   -2.3748    1.0117 H   0  0  0  0  0  0  0  0  0  0  0  0
   -4.1031   -3.2240   -0.0719 H   0  0  0  0  0  0  0  0  0  0  0  0
   -4.4243    0.4108   -0.9403 H   0  0  0  0  0  0  0  0  0  0  0  0
   -0.8899    3.5715    0.5239 H   0  0  0  0  0  0  0  0  0  0  0  0
   -4.6698    2.8236   -1.3595 H   0  0  0  0  0  0  0  0  0  0  0  0
   -2.9065    4.4058   -0.6246 H   0  0  0  0  0  0  0  0  0  0  0  0
    0.4335    1.2219   -1.5136 H   0  0  0  0  0  0  0  0  0  0  0  0
    2.0230    1.3020    2.5049 H   0  0  0  0  0  0  0  0  0  0  0  0
    2.6792    1.5949   -2.4059 H   0  0  0  0  0  0  0  0  0  0  0  0
    4.2736    1.6614    1.5989 H   0  0  0  0  0  0  0  0  0  0  0  0
    5.1937    2.9443   -1.1142 H   0  0  0  0  0  0  0  0  0  0  0  0
    5.7600    1.4352   -0.3603 H   0  0  0  0  0  0  0  0  0  0  0  0
    5.1090    1.4008   -1.9959 H   0  0  0  0  0  0  0  0  0  0  0  0
  1  7  1  0  0  0  0
  1 10  1  0  0  0  0
  2  5  1  0  0  0  0
  2 38  1  0  0  0  0
  3 13  2  0  0  0  0
  4  6  1  0  0  0  0
  4  8  1  0  0  0  0
  4 32  1  0  0  0  0
  5  6  1  0  0  0  0
  5  7  1  0  0  0  0
  5 25  1  0  0  0  0
  6 26  1  0  0  0  0
  6 27  1  0  0  0  0
  7 28  1  0  0  0  0
  7 29  1  0  0  0  0
  8  9  1  0  0  0  0
  8 30  1  0  0  0  0
  8 31  1  0  0  0  0
  9 12  1  0  0  0  0
  9 33  1  0  0  0  0
  9 34  1  0  0  0  0
 10 11  1  0  0  0  0
 10 15  2  0  0  0  0
 11 13  1  0  0  0  0
 11 16  2  0  0  0  0
 12 35  1  0  0  0  0
 12 36  1  0  0  0  0
 12 37  1  0  0  0  0
 13 14  1  0  0  0  0
 14 19  2  0  0  0  0
 14 20  1  0  0  0  0
 15 17  1  0  0  0  0
 15 39  1  0  0  0  0
 16 18  1  0  0  0  0
 16 40  1  0  0  0  0
 17 18  2  0  0  0  0
 17 41  1  0  0  0  0
 18 42  1  0  0  0  0
 19 22  1  0  0  0  0
 19 43  1  0  0  0  0
 20 23  2  0  0  0  0
 20 44  1  0  0  0  0
 21 22  2  0  0  0  0
 21 23  1  0  0  0  0
 21 24  1  0  0  0  0
 22 45  1  0  0  0  0
 23 46  1  0  0  0  0
 24 47  1  0  0  0  0
 24 48  1  0  0  0  0
 24 49  1  0  0  0  0
M  END
> <PUBCHEM_COMPOUND_CID>
59051184

> <PUBCHEM_CONFORMER_RMSD>
1

> <PUBCHEM_CONFORMER_DIVERSEORDER>
1
44
57
9
34
47
32
79
75
21
74
50
3
51
5
28
25
17
48
36
42
54
4
40
18
63
86
70
81
13
87
52
67
23
83
33
65
71
10
38
85
12
39
55
6
16
43
78
77
73
88
24
31
80
41
60
49
76
27
72
11
26
35
66
53
2
19
62
30
20
90
14
68
46
56
69
22
7
8
37
58
82
64
45
15
89
29
61
59
84

> <PUBCHEM_MMFF94_PARTIAL_CHARGES>
32
1 -0.36
10 0.08
11 0.09
13 0.4
14 0.09
15 -0.15
16 -0.15
17 -0.15
18 -0.15
19 -0.15
2 -0.68
20 -0.15
21 -0.14
22 -0.15
23 -0.15
24 0.14
3 -0.57
32 0.36
38 0.4
39 0.15
4 -0.9
40 0.15
41 0.15
42 0.15
43 0.15
44 0.15
45 0.15
46 0.15
5 0.28
6 0.27
7 0.28
8 0.27

> <PUBCHEM_EFFECTIVE_ROTOR_COUNT>
9

> <PUBCHEM_PHARMACOPHORE_FEATURES>
9
1 1 acceptor
1 12 hydrophobe
1 2 acceptor
1 2 donor
1 3 acceptor
1 4 cation
1 4 donor
6 10 11 15 16 17 18 rings
6 14 19 20 21 22 23 rings

> <PUBCHEM_HEAVY_ATOM_COUNT>
24

> <PUBCHEM_ATOM_DEF_STEREO_COUNT>
0

> <PUBCHEM_ATOM_UDEF_STEREO_COUNT>
1

> <PUBCHEM_BOND_DEF_STEREO_COUNT>
0

> <PUBCHEM_BOND_UDEF_STEREO_COUNT>
0

> <PUBCHEM_ISOTOPIC_ATOM_COUNT>
0

> <PUBCHEM_COMPONENT_COUNT>
1

> <PUBCHEM_CACTVS_TAUTO_COUNT>
4

> <PUBCHEM_CONFORMER_ID>
03850CB000000001

> <PUBCHEM_MMFF94_ENERGY>
62.1216

> <PUBCHEM_FEATURE_SELFOVERLAP>
45.675

> <PUBCHEM_SHAPE_FINGERPRINT>
10616163 171 18337952402026001102
1100329 8 18196089945592859862
11112241 14 16769525371815688074
11370993 70 18339354180546289732
12553582 1 17976814616896606315
12788726 201 18044934825324681096
13140716 1 18341056233484428091
13583140 156 17988346157658031840
14117953 113 17473260973345597102
14251757 5 17398966354360297494
14955137 171 17263026661822347849
15322687 12 18193555562779594413
15439362 3 18192708947690993708
16752209 62 18194391423502772378
18785283 64 17905626401760212553
19930381 70 17184467620853143551
20600515 1 17765996091343269998
20642791 178 17977677415322374988
20905425 154 18270967950360080086
22113638 7 17906725904254669998
22393880 68 18340498807074746964
23419403 2 17539451689153954553
23557571 272 18055060227710568521
23559900 14 18125706903764453896
3027735 51 18268994352531055363
338550 245 18337667516676407012
350125 39 18194970643388578729
463206 1 18342172211868662512
469060 322 18048615998886919819
59755656 215 18338797930620706519
6443956 14 17764583223243946040

> <PUBCHEM_SHAPE_MULTIPOLES>
471.32
7.56
5.4
1.26
3.45
4.92
-0.31
-2.77
2.06
-0.29
0.55
0.42
-0.51
0.04

> <PUBCHEM_SHAPE_SELFOVERLAP>
979.311

> <PUBCHEM_SHAPE_VOLUME>
269.5

> <PUBCHEM_COORDINATE_TYPE>
2
5
10

$$$$