
 OpenBabel03292020533D

196196  0  0  1  0  0  0  0  0999 V2000
    8.2091   -4.5673    1.6599 C   0  0  0  0  0  0  0  0  0  0  0  0
    9.5659   -3.8199    1.5676 C   0  0  0  0  0  0  0  0  0  0  0  0
   10.2495   -3.3900    0.4827 C   0  0  0  0  0  0  0  0  0  0  0  0
   11.8300   -2.8883    0.2178 C   0  0  0  0  0  0  0  0  0  0  0  0
   12.4341   -1.2462    0.0511 C   0  0  1  0  0  0  0  0  0  0  0  0
   11.0705   -0.5078    0.4751 C   0  0  0  0  0  0  0  0  0  0  0  0
   14.1033   -0.3324    0.2250 C   0  0  1  0  0  0  0  0  0  0  0  0
   13.8678    0.9355   -0.4537 O   0  0  0  0  0  0  0  0  0  0  0  0
   15.6478    0.0381    1.3965 C   0  0  1  0  0  0  0  0  0  0  0  0
   17.2724    1.0256    0.9988 C   0  0  0  0  0  0  0  0  0  0  0  0
   17.5088    1.2084   -0.2209 O   0  0  0  0  0  0  0  0  0  0  0  0
   18.2305    2.0108    1.8952 N   0  0  0  0  0  0  0  0  0  0  0  0
   19.8762    2.8867    2.2314 C   0  0  1  0  0  0  0  0  0  0  0  0
   21.2056    1.9618    2.5101 C   0  0  0  0  0  0  0  0  0  0  0  0
   22.4308    2.8267    2.8628 C   0  0  0  0  0  0  0  0  0  0  0  0
   23.9013    2.4494    3.0921 C   0  0  0  0  0  0  0  0  0  0  0  0
   20.1845    4.6845    2.7063 C   0  0  0  0  0  0  0  0  0  0  0  0
   19.5178    5.4679    1.9994 O   0  0  0  0  0  0  0  0  0  0  0  0
   21.0873    5.4391    3.6263 N   0  0  0  0  0  0  0  0  0  0  0  0
   22.5064    5.2974    4.1043 C   0  0  0  0  0  0  0  0  0  0  0  0
   20.6957    6.8651    3.9803 C   0  0  0  0  0  0  0  0  0  0  0  0
   21.4393    8.2254    3.5615 C   0  0  0  0  0  0  0  0  0  0  0  0
   21.1672    9.2756    4.1448 O   0  0  0  0  0  0  0  0  0  0  0  0
   22.4592    8.1969    2.6168 N   0  0  0  0  0  0  0  0  0  0  0  0
   23.8358    8.4502    3.0232 C   0  0  0  0  0  0  0  0  0  0  0  0
   22.0842    8.4214    1.2035 C   0  0  2  0  0  0  0  0  0  0  0  0
   22.3778    7.1175    0.4670 C   0  0  0  0  0  0  0  0  0  0  0  0
   21.6463    6.9552   -0.8683 C   0  0  0  0  0  0  0  0  0  0  0  0
   22.4677    7.4823   -2.0434 C   0  0  0  0  0  0  0  0  0  0  0  0
   21.3569    5.4660   -1.0682 C   0  0  0  0  0  0  0  0  0  0  0  0
   22.7175    9.6320    0.4233 C   0  0  0  0  0  0  0  0  0  0  0  0
   23.9393    9.6853    0.1905 O   0  0  0  0  0  0  0  0  0  0  0  0
   21.9530   10.6235   -0.1134 N   0  0  0  0  0  0  0  0  0  0  0  0
   20.7031   11.2567    0.3986 C   0  0  2  0  0  0  0  0  0  0  0  0
   20.9141   11.7669    1.8464 C   0  0  0  0  0  0  0  0  0  0  0  0
   19.6270   12.2904    2.4921 C   0  0  0  0  0  0  0  0  0  0  0  0
   21.9784   12.8730    1.9181 C   0  0  0  0  0  0  0  0  0  0  0  0
   19.4759   10.3174    0.2513 C   0  0  0  0  0  0  0  0  0  0  0  0
   19.1505    9.5768    1.1725 O   0  0  0  0  0  0  0  0  0  0  0  0
   18.8074   10.2333   -0.9938 N   0  0  0  0  0  0  0  0  0  0  0  0
   18.4327   11.4684   -1.6680 C   0  0  0  0  0  0  0  0  0  0  0  0
   17.8873    9.0491   -1.1258 C   0  0  2  0  0  0  0  0  0  0  0  0
   17.5468    8.7069   -2.6091 C   0  0  0  0  0  0  0  0  0  0  0  0
   16.7304    7.4181   -2.9132 C   0  0  0  0  0  0  0  0  0  0  0  0
   15.2494    7.4800   -2.5230 C   0  0  0  0  0  0  0  0  0  0  0  0
   16.8042    7.1017   -4.4133 C   0  0  0  0  0  0  0  0  0  0  0  0
   16.5789    9.2911   -0.3643 C   0  0  0  0  0  0  0  0  0  0  0  0
   15.8626   10.2783   -0.5739 O   0  0  0  0  0  0  0  0  0  0  0  0
   16.0641    8.3770    0.4991 N   0  0  0  0  0  0  0  0  0  0  0  0
   16.7917    7.4214    1.4123 C   0  0  1  0  0  0  0  0  0  0  0  0
   15.9771    7.4802    2.7082 C   0  0  0  0  0  0  0  0  0  0  0  0
   17.1759    6.0912    0.6483 C   0  0  0  0  0  0  0  0  0  0  0  0
   17.8767    6.1532   -0.3734 O   0  0  0  0  0  0  0  0  0  0  0  0
   16.7904    4.8236    0.9223 N   0  0  0  0  0  0  0  0  0  0  0  0
   16.0244    4.2481    2.0201 C   0  0  2  0  0  0  0  0  0  0  0  0
   14.5935    4.7674    1.9389 C   0  0  0  0  0  0  0  0  0  0  0  0
   16.8901    4.3204    3.3278 C   0  0  0  0  0  0  0  0  0  0  0  0
   17.5631    5.3011    3.6495 O   0  0  0  0  0  0  0  0  0  0  0  0
   17.1162    3.3033    4.2077 N   0  0  0  0  0  0  0  0  0  0  0  0
   16.4727    2.0109    4.3937 C   0  0  1  0  0  0  0  0  0  0  0  0
   17.4403    1.0415    5.1493 C   0  0  0  0  0  0  0  0  0  0  0  0
   18.7844    0.4157    4.5527 C   0  0  0  0  0  0  0  0  0  0  0  0
   19.4061   -0.4865    5.6378 C   0  0  0  0  0  0  0  0  0  0  0  0
   18.9201   -0.4750    3.2770 C   0  0  0  0  0  0  0  0  0  0  0  0
   15.0041    2.4260    4.9578 C   0  0  0  0  0  0  0  0  0  0  0  0
   14.5505    3.4945    4.6190 O   0  0  0  0  0  0  0  0  0  0  0  0
   14.1803    1.5213    5.6277 N   0  0  0  0  0  0  0  0  0  0  0  0
   14.6918    0.8804    6.8249 C   0  0  0  0  0  0  0  0  0  0  0  0
   12.6611    1.4082    5.4431 C   0  0  1  0  0  0  0  0  0  0  0  0
   11.9958    2.6590    4.6713 C   0  0  0  0  0  0  0  0  0  0  0  0
   10.4661    2.7247    4.3376 C   0  0  0  0  0  0  0  0  0  0  0  0
    9.6604    3.3244    5.4824 C   0  0  0  0  0  0  0  0  0  0  0  0
   10.2168    3.5861    3.0696 C   0  0  0  0  0  0  0  0  0  0  0  0
   12.5334   -0.2107    5.0631 C   0  0  0  0  0  0  0  0  0  0  0  0
   12.4518   -1.0683    5.9314 O   0  0  0  0  0  0  0  0  0  0  0  0
   12.7603   -0.5847    3.7282 N   0  0  0  0  0  0  0  0  0  0  0  0
   12.5159    0.5537    2.9002 C   0  0  0  0  0  0  0  0  0  0  0  0
   13.1319   -1.9688    3.0930 C   0  0  1  0  0  0  0  0  0  0  0  0
   12.9947   -3.4324    3.6866 C   0  0  0  0  0  0  0  0  0  0  0  0
   14.1255   -4.0493    4.5062 C   0  0  0  0  0  0  0  0  0  0  0  0
   11.6523   -3.8936    4.2254 C   0  0  0  0  0  0  0  0  0  0  0  0
   14.4676   -2.0388    2.1846 C   0  0  0  0  0  0  0  0  0  0  0  0
   14.6404   -2.8739    1.2896 O   0  0  0  0  0  0  0  0  0  0  0  0
   15.4764   -1.1122    2.4377 N   0  0  0  0  0  0  0  0  0  0  0  0
   15.6595   -0.9771    3.8463 C   0  0  0  0  0  0  0  0  0  0  0  0
    7.7633   -4.4582    2.6635 H   0  0  0  0  0  0  0  0  0  0  0  0
    8.3387   -5.6527    1.5357 H   0  0  0  0  0  0  0  0  0  0  0  0
    7.4509   -4.2240    0.9475 H   0  0  0  0  0  0  0  0  0  0  0  0
    9.9410   -3.7071    2.5593 H   0  0  0  0  0  0  0  0  0  0  0  0
    9.7090   -3.5525   -0.4612 H   0  0  0  0  0  0  0  0  0  0  0  0
   11.9558   -3.2798   -0.8024 H   0  0  0  0  0  0  0  0  0  0  0  0
   12.4648   -3.5223    0.8231 H   0  0  0  0  0  0  0  0  0  0  0  0
   12.3522   -1.1581   -1.0480 H   0  0  0  0  0  0  0  0  0  0  0  0
   10.7816   -0.7492    1.5159 H   0  0  0  0  0  0  0  0  0  0  0  0
   10.2064   -0.8782   -0.0980 H   0  0  0  0  0  0  0  0  0  0  0  0
   11.0764    0.5708    0.3348 H   0  0  0  0  0  0  0  0  0  0  0  0
   13.6594   -0.1036    1.1496 H   0  0  0  0  0  0  0  0  0  0  0  0
   13.1609    0.7822   -1.1019 H   0  0  0  0  0  0  0  0  0  0  0  0
   15.1737    0.8918    1.9063 H   0  0  0  0  0  0  0  0  0  0  0  0
   18.0807    2.7398    1.2135 H   0  0  0  0  0  0  0  0  0  0  0  0
   20.0552    3.0755    1.1595 H   0  0  0  0  0  0  0  0  0  0  0  0
   21.4365    1.3708    1.6214 H   0  0  0  0  0  0  0  0  0  0  0  0
   21.0712    1.2771    3.3424 H   0  0  0  0  0  0  0  0  0  0  0  0
   22.1299    3.1357    3.8583 H   0  0  0  0  0  0  0  0  0  0  0  0
   22.4588    3.6503    2.1423 H   0  0  0  0  0  0  0  0  0  0  0  0
   24.1640    2.5085    4.1617 H   0  0  0  0  0  0  0  0  0  0  0  0
   24.5492    3.2256    2.6445 H   0  0  0  0  0  0  0  0  0  0  0  0
   24.2082    1.4865    2.6957 H   0  0  0  0  0  0  0  0  0  0  0  0
   23.2042    5.1850    3.2727 H   0  0  0  0  0  0  0  0  0  0  0  0
   22.6213    4.5686    4.9091 H   0  0  0  0  0  0  0  0  0  0  0  0
   22.8568    6.2209    4.5993 H   0  0  0  0  0  0  0  0  0  0  0  0
   20.8555    6.8966    5.0790 H   0  0  0  0  0  0  0  0  0  0  0  0
   19.6244    7.0106    3.8535 H   0  0  0  0  0  0  0  0  0  0  0  0
   23.9136    8.5163    4.1118 H   0  0  0  0  0  0  0  0  0  0  0  0
   24.2277    9.3765    2.5979 H   0  0  0  0  0  0  0  0  0  0  0  0
   24.4478    7.6098    2.6790 H   0  0  0  0  0  0  0  0  0  0  0  0
   21.0185    8.5542    1.1953 H   0  0  0  0  0  0  0  0  0  0  0  0
   23.4581    6.9653    0.3470 H   0  0  0  0  0  0  0  0  0  0  0  0
   22.0451    6.3139    1.1348 H   0  0  0  0  0  0  0  0  0  0  0  0
   20.6876    7.4842   -0.8438 H   0  0  0  0  0  0  0  0  0  0  0  0
   23.4786    7.0609   -2.0405 H   0  0  0  0  0  0  0  0  0  0  0  0
   22.5562    8.5712   -2.0193 H   0  0  0  0  0  0  0  0  0  0  0  0
   21.9945    7.2205   -2.9954 H   0  0  0  0  0  0  0  0  0  0  0  0
   22.2789    4.8781   -1.0078 H   0  0  0  0  0  0  0  0  0  0  0  0
   20.8780    5.2776   -2.0312 H   0  0  0  0  0  0  0  0  0  0  0  0
   20.6811    5.1042   -0.2870 H   0  0  0  0  0  0  0  0  0  0  0  0
   22.5577   11.2865   -0.5983 H   0  0  0  0  0  0  0  0  0  0  0  0
   20.5537   12.1328   -0.2255 H   0  0  0  0  0  0  0  0  0  0  0  0
   21.2797   10.9425    2.4554 H   0  0  0  0  0  0  0  0  0  0  0  0
   19.2101   13.1311    1.9284 H   0  0  0  0  0  0  0  0  0  0  0  0
   19.8271   12.6284    3.5147 H   0  0  0  0  0  0  0  0  0  0  0  0
   18.8577   11.5180    2.5686 H   0  0  0  0  0  0  0  0  0  0  0  0
   21.6690   13.7628    1.3590 H   0  0  0  0  0  0  0  0  0  0  0  0
   22.9412   12.5375    1.5223 H   0  0  0  0  0  0  0  0  0  0  0  0
   22.1438   13.1714    2.9592 H   0  0  0  0  0  0  0  0  0  0  0  0
   19.2493   12.1861   -1.6985 H   0  0  0  0  0  0  0  0  0  0  0  0
   17.6037   11.9379   -1.1277 H   0  0  0  0  0  0  0  0  0  0  0  0
   18.1387   11.2771   -2.7020 H   0  0  0  0  0  0  0  0  0  0  0  0
   18.4349    8.2221   -0.6973 H   0  0  0  0  0  0  0  0  0  0  0  0
   17.0044    9.5405   -3.0699 H   0  0  0  0  0  0  0  0  0  0  0  0
   18.5049    8.6334   -3.1441 H   0  0  0  0  0  0  0  0  0  0  0  0
   17.1861    6.5647   -2.4158 H   0  0  0  0  0  0  0  0  0  0  0  0
   14.7837    8.4124   -2.8560 H   0  0  0  0  0  0  0  0  0  0  0  0
   15.0999    7.3807   -1.4500 H   0  0  0  0  0  0  0  0  0  0  0  0
   14.6883    6.6488   -2.9664 H   0  0  0  0  0  0  0  0  0  0  0  0
   16.3601    7.9037   -5.0099 H   0  0  0  0  0  0  0  0  0  0  0  0
   16.2655    6.1725   -4.6378 H   0  0  0  0  0  0  0  0  0  0  0  0
   17.8417    6.9614   -4.7296 H   0  0  0  0  0  0  0  0  0  0  0  0
   15.1986    8.7366    0.8339 H   0  0  0  0  0  0  0  0  0  0  0  0
   17.7486    7.8453    1.6540 H   0  0  0  0  0  0  0  0  0  0  0  0
   14.9048    7.3844    2.5257 H   0  0  0  0  0  0  0  0  0  0  0  0
   16.1188    8.4662    3.1702 H   0  0  0  0  0  0  0  0  0  0  0  0
   16.2162    6.7827    3.4904 H   0  0  0  0  0  0  0  0  0  0  0  0
   17.1192    4.2064    0.1905 H   0  0  0  0  0  0  0  0  0  0  0  0
   15.9477    3.1892    1.7663 H   0  0  0  0  0  0  0  0  0  0  0  0
   14.5055    5.6453    1.2844 H   0  0  0  0  0  0  0  0  0  0  0  0
   14.1597    5.0212    2.8992 H   0  0  0  0  0  0  0  0  0  0  0  0
   13.9571    4.0185    1.4505 H   0  0  0  0  0  0  0  0  0  0  0  0
   17.6809    3.6482    4.9776 H   0  0  0  0  0  0  0  0  0  0  0  0
   16.2895    1.6305    3.3970 H   0  0  0  0  0  0  0  0  0  0  0  0
   16.8928    0.2024    5.5585 H   0  0  0  0  0  0  0  0  0  0  0  0
   17.7584    1.5912    6.0459 H   0  0  0  0  0  0  0  0  0  0  0  0
   19.4478    1.2724    4.4346 H   0  0  0  0  0  0  0  0  0  0  0  0
   18.8603   -1.4372    5.6980 H   0  0  0  0  0  0  0  0  0  0  0  0
   19.3921   -0.0120    6.6208 H   0  0  0  0  0  0  0  0  0  0  0  0
   20.4511   -0.7228    5.3984 H   0  0  0  0  0  0  0  0  0  0  0  0
   18.1468   -1.2172    3.1144 H   0  0  0  0  0  0  0  0  0  0  0  0
   19.8478   -1.0655    3.3160 H   0  0  0  0  0  0  0  0  0  0  0  0
   19.0542    0.0541    2.3444 H   0  0  0  0  0  0  0  0  0  0  0  0
   15.3455    1.5854    7.3508 H   0  0  0  0  0  0  0  0  0  0  0  0
   15.2347   -0.0216    6.5532 H   0  0  0  0  0  0  0  0  0  0  0  0
   13.8767    0.5897    7.4840 H   0  0  0  0  0  0  0  0  0  0  0  0
   12.2147    1.4771    6.4417 H   0  0  0  0  0  0  0  0  0  0  0  0
   12.5145    2.8544    3.7274 H   0  0  0  0  0  0  0  0  0  0  0  0
   12.2170    3.5549    5.2661 H   0  0  0  0  0  0  0  0  0  0  0  0
   10.0584    1.7292    4.1400 H   0  0  0  0  0  0  0  0  0  0  0  0
    9.9492    4.3644    5.6689 H   0  0  0  0  0  0  0  0  0  0  0  0
    9.8069    2.7468    6.3970 H   0  0  0  0  0  0  0  0  0  0  0  0
    8.5911    3.3179    5.2396 H   0  0  0  0  0  0  0  0  0  0  0  0
   10.5853    4.6117    3.1945 H   0  0  0  0  0  0  0  0  0  0  0  0
    9.1464    3.6502    2.8358 H   0  0  0  0  0  0  0  0  0  0  0  0
   10.7108    3.1622    2.1873 H   0  0  0  0  0  0  0  0  0  0  0  0
   13.3434    1.2536    2.9641 H   0  0  0  0  0  0  0  0  0  0  0  0
   11.5500    0.9482    3.1717 H   0  0  0  0  0  0  0  0  0  0  0  0
   12.3122    0.4296    1.8767 H   0  0  0  0  0  0  0  0  0  0  0  0
   12.3274   -1.9887    2.3698 H   0  0  0  0  0  0  0  0  0  0  0  0
   13.0829   -4.0443    2.7713 H   0  0  0  0  0  0  0  0  0  0  0  0
   14.1261   -3.6908    5.5353 H   0  0  0  0  0  0  0  0  0  0  0  0
   15.1053   -3.8911    4.0489 H   0  0  0  0  0  0  0  0  0  0  0  0
   13.9901   -5.1420    4.5310 H   0  0  0  0  0  0  0  0  0  0  0  0
   10.9312   -3.0812    4.3123 H   0  0  0  0  0  0  0  0  0  0  0  0
   11.7264   -4.4159    5.1821 H   0  0  0  0  0  0  0  0  0  0  0  0
   11.2719   -4.6677    3.5436 H   0  0  0  0  0  0  0  0  0  0  0  0
   16.6549   -1.2288    4.1427 H   0  0  0  0  0  0  0  0  0  0  0  0
   15.0678   -1.6787    4.4417 H   0  0  0  0  0  0  0  0  0  0  0  0
   15.3027   -0.0073    4.1293 H   0  0  0  0  0  0  0  0  0  0  0  0
  1  2  1  0  0  0  0
  1 86  1  0  0  0  0
  1 87  1  0  0  0  0
  1 88  1  0  0  0  0
  2  3  2  0  0  0  0
  2 89  1  0  0  0  0
  3  4  1  0  0  0  0
  3 90  1  0  0  0  0
  4  5  1  0  0  0  0
  4 91  1  0  0  0  0
  4 92  1  0  0  0  0
  5  6  1  0  0  0  0
  5  7  1  0  0  0  0
  5 93  1  6  0  0  0
  6 94  1  0  0  0  0
  6 95  1  0  0  0  0
  6 96  1  0  0  0  0
  7  8  1  0  0  0  0
  7 97  1  6  0  0  0
  8 98  1  0  0  0  0
  9 10  1  0  0  0  0
  9 84  1  0  0  0  0
  9  7  1  0  0  0  0
  9 99  1  6  0  0  0
 10 11  2  0  0  0  0
 10 12  1  0  0  0  0
 12 13  1  0  0  0  0
 12100  1  0  0  0  0
 13 14  1  0  0  0  0
 13 17  1  0  0  0  0
 13101  1  1  0  0  0
 14 15  1  0  0  0  0
 14102  1  0  0  0  0
 14103  1  0  0  0  0
 15 16  1  0  0  0  0
 15104  1  0  0  0  0
 15105  1  0  0  0  0
 16106  1  0  0  0  0
 16107  1  0  0  0  0
 16108  1  0  0  0  0
 17 18  2  0  0  0  0
 17 19  1  0  0  0  0
 19 20  1  0  0  0  0
 19 21  1  0  0  0  0
 20109  1  0  0  0  0
 20110  1  0  0  0  0
 20111  1  0  0  0  0
 21 22  1  0  0  0  0
 21112  1  0  0  0  0
 21113  1  0  0  0  0
 22 23  2  0  0  0  0
 22 24  1  0  0  0  0
 24 25  1  0  0  0  0
 24 26  1  0  0  0  0
 25114  1  0  0  0  0
 25115  1  0  0  0  0
 25116  1  0  0  0  0
 26 31  1  0  0  0  0
 26 27  1  0  0  0  0
 26117  1  6  0  0  0
 27 28  1  0  0  0  0
 27118  1  0  0  0  0
 27119  1  0  0  0  0
 28 29  1  0  0  0  0
 28 30  1  0  0  0  0
 28120  1  0  0  0  0
 29121  1  0  0  0  0
 29122  1  0  0  0  0
 29123  1  0  0  0  0
 30124  1  0  0  0  0
 30125  1  0  0  0  0
 30126  1  0  0  0  0
 31 32  2  0  0  0  0
 31 33  1  0  0  0  0
 33 34  1  0  0  0  0
 33127  1  0  0  0  0
 34 38  1  0  0  0  0
 34 35  1  0  0  0  0
 34128  1  6  0  0  0
 35 36  1  0  0  0  0
 35 37  1  0  0  0  0
 35129  1  0  0  0  0
 36130  1  0  0  0  0
 36131  1  0  0  0  0
 36132  1  0  0  0  0
 37133  1  0  0  0  0
 37134  1  0  0  0  0
 37135  1  0  0  0  0
 38 39  2  0  0  0  0
 38 40  1  0  0  0  0
 40 41  1  0  0  0  0
 40 42  1  0  0  0  0
 41136  1  0  0  0  0
 41137  1  0  0  0  0
 41138  1  0  0  0  0
 42 47  1  0  0  0  0
 42 43  1  0  0  0  0
 42139  1  1  0  0  0
 43 44  1  0  0  0  0
 43140  1  0  0  0  0
 43141  1  0  0  0  0
 44 45  1  0  0  0  0
 44 46  1  0  0  0  0
 44142  1  0  0  0  0
 45143  1  0  0  0  0
 45144  1  0  0  0  0
 45145  1  0  0  0  0
 46146  1  0  0  0  0
 46147  1  0  0  0  0
 46148  1  0  0  0  0
 47 48  2  0  0  0  0
 47 49  1  0  0  0  0
 49 50  1  0  0  0  0
 49149  1  0  0  0  0
 50 51  1  0  0  0  0
 50 52  1  0  0  0  0
 50150  1  1  0  0  0
 51151  1  0  0  0  0
 51152  1  0  0  0  0
 51153  1  0  0  0  0
 52 53  2  0  0  0  0
 52 54  1  0  0  0  0
 54 55  1  0  0  0  0
 54154  1  0  0  0  0
 55 57  1  0  0  0  0
 55 56  1  0  0  0  0
 55155  1  6  0  0  0
 56156  1  0  0  0  0
 56157  1  0  0  0  0
 56158  1  0  0  0  0
 57 58  2  0  0  0  0
 57 59  1  0  0  0  0
 59 60  1  0  0  0  0
 59159  1  0  0  0  0
 60 61  1  0  0  0  0
 60 65  1  0  0  0  0
 60160  1  6  0  0  0
 61 62  1  0  0  0  0
 61161  1  0  0  0  0
 61162  1  0  0  0  0
 62 63  1  0  0  0  0
 62 64  1  0  0  0  0
 62163  1  0  0  0  0
 63164  1  0  0  0  0
 63165  1  0  0  0  0
 63166  1  0  0  0  0
 64167  1  0  0  0  0
 64168  1  0  0  0  0
 64169  1  0  0  0  0
 65 66  2  0  0  0  0
 65 67  1  0  0  0  0
 67 68  1  0  0  0  0
 67 69  1  0  0  0  0
 68170  1  0  0  0  0
 68171  1  0  0  0  0
 68172  1  0  0  0  0
 69 70  1  0  0  0  0
 69 74  1  0  0  0  0
 69173  1  1  0  0  0
 70 71  1  0  0  0  0
 70174  1  0  0  0  0
 70175  1  0  0  0  0
 71 72  1  0  0  0  0
 71 73  1  0  0  0  0
 71176  1  0  0  0  0
 72177  1  0  0  0  0
 72178  1  0  0  0  0
 72179  1  0  0  0  0
 73180  1  0  0  0  0
 73181  1  0  0  0  0
 73182  1  0  0  0  0
 74 75  2  0  0  0  0
 74 76  1  0  0  0  0
 76 77  1  0  0  0  0
 76 78  1  0  0  0  0
 77183  1  0  0  0  0
 77184  1  0  0  0  0
 77185  1  0  0  0  0
 78 79  1  0  0  0  0
 78 82  1  0  0  0  0
 78186  1  1  0  0  0
 79 80  1  0  0  0  0
 79 81  1  0  0  0  0
 79187  1  0  0  0  0
 80188  1  0  0  0  0
 80189  1  0  0  0  0
 80190  1  0  0  0  0
 81191  1  0  0  0  0
 81192  1  0  0  0  0
 81193  1  0  0  0  0
 82 83  2  0  0  0  0
 82 84  1  0  0  0  0
 84 85  1  0  0  0  0
 85194  1  0  0  0  0
 85195  1  0  0  0  0
 85196  1  0  0  0  0
M  END
>  <Energy>
1080.41

$$$$