2
 OpenBabel03292021413D

200200  0  0  1  0  0  0  0  0999 V2000
    3.1434   -4.0305    0.7266 C   0  0  0  0  0  0  0  0  0  0  0  0
    3.0326   -5.2794   -0.1459 C   0  0  0  0  0  0  0  0  0  0  0  0
    4.1553   -6.2932   -0.3913 C   0  0  0  0  0  0  0  0  0  0  0  0
    5.4962   -6.3461   -0.2022 C   0  0  0  0  0  0  0  0  0  0  0  0
    6.3198   -7.6791   -0.4488 C   0  0  0  0  0  0  0  0  0  0  0  0
    7.8766   -7.7156   -0.8575 C   0  0  1  0  0  0  0  0  0  0  0  0
    8.6008   -6.6597    0.0102 C   0  0  0  0  0  0  0  0  0  0  0  0
    8.7317   -9.2355   -0.8630 C   0  0  1  0  0  0  0  0  0  0  0  0
    7.8718  -10.2251   -0.3015 O   0  0  0  0  0  0  0  0  0  0  0  0
    9.4833   -9.8583   -2.2906 C   0  0  1  0  0  0  0  0  0  0  0  0
   10.1403  -11.4742   -2.8080 C   0  0  0  0  0  0  0  0  0  0  0  0
    9.3511  -12.4326   -2.8024 O   0  0  0  0  0  0  0  0  0  0  0  0
   11.4594  -11.7463   -3.3596 N   0  0  0  0  0  0  0  0  0  0  0  0
   11.9784  -13.1134   -4.2268 C   0  0  1  0  0  0  0  0  0  0  0  0
   11.8617  -14.4218   -3.3932 C   0  0  0  0  0  0  0  0  0  0  0  0
   11.9513  -15.7425   -4.1909 C   0  0  0  0  0  0  0  0  0  0  0  0
   13.3367  -13.0446   -5.3301 C   0  0  0  0  0  0  0  0  0  0  0  0
   13.5032  -11.9693   -5.9275 O   0  0  0  0  0  0  0  0  0  0  0  0
   14.1903  -14.1806   -5.7043 N   0  0  0  0  0  0  0  0  0  0  0  0
   14.8636  -14.8489   -4.5976 C   0  0  0  0  0  0  0  0  0  0  0  0
   15.1573  -14.0835   -6.9186 C   0  0  0  0  0  0  0  0  0  0  0  0
   15.4160  -14.7314   -8.4211 C   0  0  0  0  0  0  0  0  0  0  0  0
   16.4590  -14.3530   -9.0176 O   0  0  0  0  0  0  0  0  0  0  0  0
   14.5004  -15.5289   -9.1126 N   0  0  0  0  0  0  0  0  0  0  0  0
   14.0833  -16.7466   -8.4903 C   0  0  0  0  0  0  0  0  0  0  0  0
   14.5444  -15.5741  -10.6481 C   0  0  1  0  0  0  0  0  0  0  0  0
   14.2539  -14.2319  -11.3279 C   0  0  0  0  0  0  0  0  0  0  0  0
   13.2416  -13.2819  -10.7270 C   0  0  0  0  0  0  0  0  0  0  0  0
   11.9227  -14.0097  -10.4908 C   0  0  0  0  0  0  0  0  0  0  0  0
   13.8455  -12.5445   -9.5437 C   0  0  0  0  0  0  0  0  0  0  0  0
   12.9862  -12.2601  -11.7035 O   0  0  0  0  0  0  0  0  0  0  0  0
   15.6767  -16.4674  -11.3211 C   0  0  0  0  0  0  0  0  0  0  0  0
   16.0247  -17.5154  -10.7521 O   0  0  0  0  0  0  0  0  0  0  0  0
   16.2113  -16.3093  -12.5768 N   0  0  0  0  0  0  0  0  0  0  0  0
   16.3941  -15.1614  -13.5461 C   0  0  2  0  0  0  0  0  0  0  0  0
   17.2367  -14.0753  -12.8217 C   0  0  0  0  0  0  0  0  0  0  0  0
   17.1705  -12.6548  -13.3645 C   0  0  0  0  0  0  0  0  0  0  0  0
   18.7072  -14.5148  -12.7021 C   0  0  0  0  0  0  0  0  0  0  0  0
   15.0286  -14.9193  -14.2792 C   0  0  0  0  0  0  0  0  0  0  0  0
   14.0805  -15.6762  -14.0319 O   0  0  0  0  0  0  0  0  0  0  0  0
   14.8331  -13.9096  -15.2413 N   0  0  0  0  0  0  0  0  0  0  0  0
   15.9026  -13.5003  -16.1466 C   0  0  0  0  0  0  0  0  0  0  0  0
   13.4198  -13.5179  -15.5935 C   0  0  2  0  0  0  0  0  0  0  0  0
   12.8107  -14.3036  -16.7894 C   0  0  0  0  0  0  0  0  0  0  0  0
   12.4247  -15.7766  -16.5494 C   0  0  0  0  0  0  0  0  0  0  0  0
   11.3427  -15.9477  -15.4782 C   0  0  0  0  0  0  0  0  0  0  0  0
   11.9188  -16.3971  -17.8577 C   0  0  0  0  0  0  0  0  0  0  0  0
   13.2740  -12.0086  -15.9643 C   0  0  0  0  0  0  0  0  0  0  0  0
   13.9436  -11.4956  -16.8716 O   0  0  0  0  0  0  0  0  0  0  0  0
   12.3860  -11.1920  -15.3311 N   0  0  0  0  0  0  0  0  0  0  0  0
   11.4113  -11.4548  -14.2593 C   0  0  1  0  0  0  0  0  0  0  0  0
   11.3755  -10.2345  -13.3565 C   0  0  0  0  0  0  0  0  0  0  0  0
   10.0519  -11.8852  -14.8619 C   0  0  0  0  0  0  0  0  0  0  0  0
    9.9782  -12.4358  -15.9681 O   0  0  0  0  0  0  0  0  0  0  0  0
    8.9141  -11.9312  -14.0883 N   0  0  0  0  0  0  0  0  0  0  0  0
    8.0210  -10.7611  -13.9441 C   0  0  2  0  0  0  0  0  0  0  0  0
    8.1965   -9.6856  -15.0196 C   0  0  0  0  0  0  0  0  0  0  0  0
    8.0689  -10.1519  -12.5232 C   0  0  0  0  0  0  0  0  0  0  0  0
    8.5589   -9.0387  -12.3610 O   0  0  0  0  0  0  0  0  0  0  0  0
    7.5566  -10.9419  -11.4894 N   0  0  0  0  0  0  0  0  0  0  0  0
    6.1440  -11.3047  -11.5530 C   0  0  0  0  0  0  0  0  0  0  0  0
    8.0618  -10.7890  -10.0991 C   0  0  1  0  0  0  0  0  0  0  0  0
    9.4387  -11.3946   -9.8356 C   0  0  0  0  0  0  0  0  0  0  0  0
    9.8456  -11.3497   -8.3530 C   0  0  0  0  0  0  0  0  0  0  0  0
    9.4045  -12.5849   -7.5724 C   0  0  0  0  0  0  0  0  0  0  0  0
   11.3388  -11.1963   -8.2106 C   0  0  0  0  0  0  0  0  0  0  0  0
    7.6708   -9.4685   -9.3977 C   0  0  0  0  0  0  0  0  0  0  0  0
    6.5864   -9.5197   -8.7987 O   0  0  0  0  0  0  0  0  0  0  0  0
    8.4235   -8.3021   -9.4802 N   0  0  0  0  0  0  0  0  0  0  0  0
    9.7576   -8.2283  -10.0572 C   0  0  0  0  0  0  0  0  0  0  0  0
    8.0000   -7.0504   -8.7706 C   0  0  1  0  0  0  0  0  0  0  0  0
    6.5078   -6.7171   -8.9864 C   0  0  0  0  0  0  0  0  0  0  0  0
    5.9799   -5.4625   -8.2838 C   0  0  0  0  0  0  0  0  0  0  0  0
    6.4748   -4.1995   -8.9779 C   0  0  0  0  0  0  0  0  0  0  0  0
    4.4463   -5.5072   -8.2795 C   0  0  0  0  0  0  0  0  0  0  0  0
    8.6213   -6.9609   -7.3250 C   0  0  0  0  0  0  0  0  0  0  0  0
    9.1801   -5.9363   -6.9278 O   0  0  0  0  0  0  0  0  0  0  0  0
    8.5255   -8.0983   -6.5362 N   0  0  0  0  0  0  0  0  0  0  0  0
    7.1350   -8.3981   -6.1634 C   0  0  0  0  0  0  0  0  0  0  0  0
    9.6042   -8.5093   -5.5473 C   0  0  1  0  0  0  0  0  0  0  0  0
   11.0829   -7.9529   -5.6853 C   0  0  0  0  0  0  0  0  0  0  0  0
   12.1779   -8.8232   -5.0012 C   0  0  0  0  0  0  0  0  0  0  0  0
   11.5891   -7.8728   -7.1128 C   0  0  0  0  0  0  0  0  0  0  0  0
    9.1111   -8.3807   -4.0964 C   0  0  0  0  0  0  0  0  0  0  0  0
    7.9320   -8.2213   -3.7722 O   0  0  0  0  0  0  0  0  0  0  0  0
   10.0294   -8.7629   -3.1155 N   0  0  0  0  0  0  0  0  0  0  0  0
   10.6233   -7.6071   -2.4476 C   0  0  0  0  0  0  0  0  0  0  0  0
    2.1410   -3.5821    0.8332 H   0  0  0  0  0  0  0  0  0  0  0  0
    3.7773   -3.2609    0.2785 H   0  0  0  0  0  0  0  0  0  0  0  0
    3.4902   -4.2527    1.7389 H   0  0  0  0  0  0  0  0  0  0  0  0
    2.6544   -4.9573   -1.1254 H   0  0  0  0  0  0  0  0  0  0  0  0
    2.2062   -5.8585    0.2961 H   0  0  0  0  0  0  0  0  0  0  0  0
    3.7163   -7.2049   -0.8039 H   0  0  0  0  0  0  0  0  0  0  0  0
    5.9984   -5.4798    0.2258 H   0  0  0  0  0  0  0  0  0  0  0  0
    6.2174   -8.2236    0.4950 H   0  0  0  0  0  0  0  0  0  0  0  0
    5.7833   -8.2416   -1.2224 H   0  0  0  0  0  0  0  0  0  0  0  0
    7.9071   -7.2983   -1.8592 H   0  0  0  0  0  0  0  0  0  0  0  0
    8.5122   -6.8827    1.0760 H   0  0  0  0  0  0  0  0  0  0  0  0
    8.1766   -5.6614   -0.1624 H   0  0  0  0  0  0  0  0  0  0  0  0
    9.6602   -6.5651   -0.2292 H   0  0  0  0  0  0  0  0  0  0  0  0
    9.5544   -9.1007   -0.1488 H   0  0  0  0  0  0  0  0  0  0  0  0
    7.4768   -9.8548    0.5101 H   0  0  0  0  0  0  0  0  0  0  0  0
    8.5173  -10.1213   -2.7596 H   0  0  0  0  0  0  0  0  0  0  0  0
   12.1774  -11.0469   -3.2362 H   0  0  0  0  0  0  0  0  0  0  0  0
   11.1511  -13.1893   -4.9450 H   0  0  0  0  0  0  0  0  0  0  0  0
   10.8869  -14.4386   -2.8964 H   0  0  0  0  0  0  0  0  0  0  0  0
   12.5978  -14.4280   -2.5825 H   0  0  0  0  0  0  0  0  0  0  0  0
   11.9715  -15.5965   -5.2754 H   0  0  0  0  0  0  0  0  0  0  0  0
   11.1051  -16.4003   -3.9659 H   0  0  0  0  0  0  0  0  0  0  0  0
   12.8383  -16.3231   -3.9083 H   0  0  0  0  0  0  0  0  0  0  0  0
   15.0213  -15.9058   -4.8636 H   0  0  0  0  0  0  0  0  0  0  0  0
   14.3476  -14.7545   -3.6492 H   0  0  0  0  0  0  0  0  0  0  0  0
   15.8466  -14.3805   -4.4390 H   0  0  0  0  0  0  0  0  0  0  0  0
   16.1431  -14.3228   -6.4848 H   0  0  0  0  0  0  0  0  0  0  0  0
   15.2280  -13.0137   -7.1323 H   0  0  0  0  0  0  0  0  0  0  0  0
   13.7650  -16.5312   -7.4570 H   0  0  0  0  0  0  0  0  0  0  0  0
   14.9420  -17.4415   -8.4030 H   0  0  0  0  0  0  0  0  0  0  0  0
   13.2630  -17.2209   -9.0172 H   0  0  0  0  0  0  0  0  0  0  0  0
   13.6558  -16.1775  -10.8975 H   0  0  0  0  0  0  0  0  0  0  0  0
   13.8465  -14.4390  -12.3088 H   0  0  0  0  0  0  0  0  0  0  0  0
   15.1515  -13.6557  -11.5013 H   0  0  0  0  0  0  0  0  0  0  0  0
   12.0228  -14.9094   -9.8802 H   0  0  0  0  0  0  0  0  0  0  0  0
   11.4641  -14.2945  -11.4459 H   0  0  0  0  0  0  0  0  0  0  0  0
   11.2050  -13.3720   -9.9945 H   0  0  0  0  0  0  0  0  0  0  0  0
   13.5817  -13.0357   -8.6105 H   0  0  0  0  0  0  0  0  0  0  0  0
   13.5366  -11.5027   -9.5055 H   0  0  0  0  0  0  0  0  0  0  0  0
   14.9344  -12.4791   -9.6250 H   0  0  0  0  0  0  0  0  0  0  0  0
   13.7996  -11.7303  -11.7969 H   0  0  0  0  0  0  0  0  0  0  0  0
   16.7950  -17.1079  -12.7947 H   0  0  0  0  0  0  0  0  0  0  0  0
   17.0269  -15.5904  -14.3347 H   0  0  0  0  0  0  0  0  0  0  0  0
   16.9306  -14.0192  -11.7762 H   0  0  0  0  0  0  0  0  0  0  0  0
   17.7116  -12.5540  -14.3087 H   0  0  0  0  0  0  0  0  0  0  0  0
   17.6424  -11.9639  -12.6556 H   0  0  0  0  0  0  0  0  0  0  0  0
   16.1396  -12.3143  -13.4909 H   0  0  0  0  0  0  0  0  0  0  0  0
   19.2014  -14.5445  -13.6770 H   0  0  0  0  0  0  0  0  0  0  0  0
   18.7852  -15.5069  -12.2443 H   0  0  0  0  0  0  0  0  0  0  0  0
   19.2584  -13.8212  -12.0566 H   0  0  0  0  0  0  0  0  0  0  0  0
   16.8402  -13.9937  -15.9016 H   0  0  0  0  0  0  0  0  0  0  0  0
   16.0415  -12.4187  -16.0845 H   0  0  0  0  0  0  0  0  0  0  0  0
   15.6384  -13.7822  -17.1682 H   0  0  0  0  0  0  0  0  0  0  0  0
   12.8179  -13.7013  -14.7076 H   0  0  0  0  0  0  0  0  0  0  0  0
   11.9087  -13.7800  -17.1309 H   0  0  0  0  0  0  0  0  0  0  0  0
   13.5046  -14.2588  -17.6361 H   0  0  0  0  0  0  0  0  0  0  0  0
   13.3181  -16.3370  -16.2557 H   0  0  0  0  0  0  0  0  0  0  0  0
   10.4058  -15.4675  -15.7799 H   0  0  0  0  0  0  0  0  0  0  0  0
   11.6347  -15.5256  -14.5146 H   0  0  0  0  0  0  0  0  0  0  0  0
   11.1363  -17.0116  -15.3142 H   0  0  0  0  0  0  0  0  0  0  0  0
   10.9899  -15.9203  -18.1916 H   0  0  0  0  0  0  0  0  0  0  0  0
   11.7193  -17.4665  -17.7268 H   0  0  0  0  0  0  0  0  0  0  0  0
   12.6599  -16.2916  -18.6568 H   0  0  0  0  0  0  0  0  0  0  0  0
   12.3191  -10.2900  -15.7890 H   0  0  0  0  0  0  0  0  0  0  0  0
   11.7571  -12.3127  -13.6855 H   0  0  0  0  0  0  0  0  0  0  0  0
   10.9767   -9.3529  -13.8647 H   0  0  0  0  0  0  0  0  0  0  0  0
   12.3832   -9.9671  -13.0166 H   0  0  0  0  0  0  0  0  0  0  0  0
   10.7755  -10.4283  -12.4715 H   0  0  0  0  0  0  0  0  0  0  0  0
    8.3532  -12.6689  -14.4982 H   0  0  0  0  0  0  0  0  0  0  0  0
    7.0125  -11.1548  -14.0958 H   0  0  0  0  0  0  0  0  0  0  0  0
    9.2301   -9.3462  -15.1135 H   0  0  0  0  0  0  0  0  0  0  0  0
    7.5866   -8.8035  -14.7955 H   0  0  0  0  0  0  0  0  0  0  0  0
    7.8872  -10.0710  -15.9959 H   0  0  0  0  0  0  0  0  0  0  0  0
    5.7860  -11.4330  -12.5761 H   0  0  0  0  0  0  0  0  0  0  0  0
    5.5536  -10.5049  -11.0979 H   0  0  0  0  0  0  0  0  0  0  0  0
    5.9813  -12.2389  -11.0069 H   0  0  0  0  0  0  0  0  0  0  0  0
    7.4378  -11.5131   -9.5444 H   0  0  0  0  0  0  0  0  0  0  0  0
   10.1998  -10.9411  -10.4688 H   0  0  0  0  0  0  0  0  0  0  0  0
    9.3905  -12.4429  -10.1742 H   0  0  0  0  0  0  0  0  0  0  0  0
    9.4028  -10.4776   -7.8643 H   0  0  0  0  0  0  0  0  0  0  0  0
    9.8720  -13.5009   -7.9761 H   0  0  0  0  0  0  0  0  0  0  0  0
    8.3300  -12.7092   -7.5982 H   0  0  0  0  0  0  0  0  0  0  0  0
    9.7183  -12.5032   -6.5213 H   0  0  0  0  0  0  0  0  0  0  0  0
   11.7990  -12.1618   -8.3628 H   0  0  0  0  0  0  0  0  0  0  0  0
   11.6144  -10.9132   -7.1871 H   0  0  0  0  0  0  0  0  0  0  0  0
   11.7508  -10.4673   -8.9037 H   0  0  0  0  0  0  0  0  0  0  0  0
    9.9897   -9.0184  -10.7530 H   0  0  0  0  0  0  0  0  0  0  0  0
   10.4806   -8.3227   -9.2659 H   0  0  0  0  0  0  0  0  0  0  0  0
    9.9099   -7.2681  -10.5565 H   0  0  0  0  0  0  0  0  0  0  0  0
    8.5264   -6.2463   -9.3053 H   0  0  0  0  0  0  0  0  0  0  0  0
    5.8484   -7.5313   -8.6968 H   0  0  0  0  0  0  0  0  0  0  0  0
    6.3420   -6.6271  -10.0702 H   0  0  0  0  0  0  0  0  0  0  0  0
    6.3104   -5.4524   -7.2389 H   0  0  0  0  0  0  0  0  0  0  0  0
    6.2004   -4.1995  -10.0387 H   0  0  0  0  0  0  0  0  0  0  0  0
    7.5640   -4.1164   -8.9094 H   0  0  0  0  0  0  0  0  0  0  0  0
    6.0413   -3.3066   -8.5166 H   0  0  0  0  0  0  0  0  0  0  0  0
    4.0476   -5.6156   -9.2943 H   0  0  0  0  0  0  0  0  0  0  0  0
    4.0242   -4.6001   -7.8375 H   0  0  0  0  0  0  0  0  0  0  0  0
    4.0891   -6.3602   -7.6900 H   0  0  0  0  0  0  0  0  0  0  0  0
    6.4355   -8.2721   -6.9745 H   0  0  0  0  0  0  0  0  0  0  0  0
    6.7787   -7.6414   -5.4542 H   0  0  0  0  0  0  0  0  0  0  0  0
    7.0408   -9.4152   -5.7780 H   0  0  0  0  0  0  0  0  0  0  0  0
    9.6648   -9.5955   -5.7083 H   0  0  0  0  0  0  0  0  0  0  0  0
   11.1222   -6.9438   -5.2585 H   0  0  0  0  0  0  0  0  0  0  0  0
   12.1946   -9.8275   -5.4259 H   0  0  0  0  0  0  0  0  0  0  0  0
   12.1114   -8.9503   -3.9287 H   0  0  0  0  0  0  0  0  0  0  0  0
   13.1696   -8.3762   -5.1479 H   0  0  0  0  0  0  0  0  0  0  0  0
   11.3028   -8.7895   -7.6152 H   0  0  0  0  0  0  0  0  0  0  0  0
   12.6773   -7.8074   -7.1774 H   0  0  0  0  0  0  0  0  0  0  0  0
   11.1972   -7.0127   -7.6568 H   0  0  0  0  0  0  0  0  0  0  0  0
   11.4418   -7.1971   -3.0419 H   0  0  0  0  0  0  0  0  0  0  0  0
   11.0240   -7.8759   -1.4700 H   0  0  0  0  0  0  0  0  0  0  0  0
    9.9021   -6.7872   -2.3889 H   0  0  0  0  0  0  0  0  0  0  0  0
  1  2  1  0  0  0  0
  1 88  1  0  0  0  0
  1 89  1  0  0  0  0
  1 90  1  0  0  0  0
  2  3  1  0  0  0  0
  2 91  1  0  0  0  0
  2 92  1  0  0  0  0
  3  4  2  0  0  0  0
  3 93  1  0  0  0  0
  4  5  1  0  0  0  0
  4 94  1  0  0  0  0
  5  6  1  0  0  0  0
  5 95  1  0  0  0  0
  5 96  1  0  0  0  0
  6  7  1  0  0  0  0
  6  8  1  0  0  0  0
  6 97  1  6  0  0  0
  7 98  1  0  0  0  0
  7 99  1  0  0  0  0
  7100  1  0  0  0  0
  8  9  1  0  0  0  0
  8 10  1  0  0  0  0
  8101  1  1  0  0  0
  9102  1  0  0  0  0
 10 11  1  0  0  0  0
 10 86  1  0  0  0  0
 10103  1  1  0  0  0
 11 12  2  0  0  0  0
 11 13  1  0  0  0  0
 13 14  1  0  0  0  0
 13104  1  0  0  0  0
 14 15  1  0  0  0  0
 14 17  1  0  0  0  0
 14105  1  1  0  0  0
 15 16  1  0  0  0  0
 15106  1  0  0  0  0
 15107  1  0  0  0  0
 16108  1  0  0  0  0
 16109  1  0  0  0  0
 16110  1  0  0  0  0
 17 18  2  0  0  0  0
 17 19  1  0  0  0  0
 19 20  1  0  0  0  0
 19 21  1  0  0  0  0
 20111  1  0  0  0  0
 20112  1  0  0  0  0
 20113  1  0  0  0  0
 21 22  1  0  0  0  0
 21114  1  0  0  0  0
 21115  1  0  0  0  0
 22 23  2  0  0  0  0
 22 24  1  0  0  0  0
 24 25  1  0  0  0  0
 24 26  1  0  0  0  0
 25116  1  0  0  0  0
 25117  1  0  0  0  0
 25118  1  0  0  0  0
 26 27  1  0  0  0  0
 26 32  1  0  0  0  0
 26119  1  6  0  0  0
 27 28  1  0  0  0  0
 27120  1  0  0  0  0
 27121  1  0  0  0  0
 28 29  1  0  0  0  0
 28 30  1  0  0  0  0
 28 31  1  0  0  0  0
 29122  1  0  0  0  0
 29123  1  0  0  0  0
 29124  1  0  0  0  0
 30125  1  0  0  0  0
 30126  1  0  0  0  0
 30127  1  0  0  0  0
 31128  1  0  0  0  0
 32 33  2  0  0  0  0
 32 34  1  0  0  0  0
 34 35  1  0  0  0  0
 34129  1  0  0  0  0
 35 39  1  0  0  0  0
 35 36  1  0  0  0  0
 35130  1  6  0  0  0
 36 37  1  0  0  0  0
 36 38  1  0  0  0  0
 36131  1  0  0  0  0
 37132  1  0  0  0  0
 37133  1  0  0  0  0
 37134  1  0  0  0  0
 38135  1  0  0  0  0
 38136  1  0  0  0  0
 38137  1  0  0  0  0
 39 40  2  0  0  0  0
 39 41  1  0  0  0  0
 41 42  1  0  0  0  0
 41 43  1  0  0  0  0
 42138  1  0  0  0  0
 42139  1  0  0  0  0
 42140  1  0  0  0  0
 43 48  1  0  0  0  0
 43 44  1  0  0  0  0
 43141  1  1  0  0  0
 44 45  1  0  0  0  0
 44142  1  0  0  0  0
 44143  1  0  0  0  0
 45 46  1  0  0  0  0
 45 47  1  0  0  0  0
 45144  1  0  0  0  0
 46145  1  0  0  0  0
 46146  1  0  0  0  0
 46147  1  0  0  0  0
 47148  1  0  0  0  0
 47149  1  0  0  0  0
 47150  1  0  0  0  0
 48 49  2  0  0  0  0
 48 50  1  0  0  0  0
 50 51  1  0  0  0  0
 50151  1  0  0  0  0
 51 52  1  0  0  0  0
 51 53  1  0  0  0  0
 51152  1  1  0  0  0
 52153  1  0  0  0  0
 52154  1  0  0  0  0
 52155  1  0  0  0  0
 53 54  2  0  0  0  0
 53 55  1  0  0  0  0
 55 56  1  0  0  0  0
 55156  1  0  0  0  0
 56 58  1  0  0  0  0
 56 57  1  0  0  0  0
 56157  1  6  0  0  0
 57158  1  0  0  0  0
 57159  1  0  0  0  0
 57160  1  0  0  0  0
 58 59  2  0  0  0  0
 58 60  1  0  0  0  0
 60 61  1  0  0  0  0
 60 62  1  0  0  0  0
 61161  1  0  0  0  0
 61162  1  0  0  0  0
 61163  1  0  0  0  0
 62 63  1  0  0  0  0
 62 67  1  0  0  0  0
 62164  1  1  0  0  0
 63 64  1  0  0  0  0
 63165  1  0  0  0  0
 63166  1  0  0  0  0
 64 65  1  0  0  0  0
 64 66  1  0  0  0  0
 64167  1  0  0  0  0
 65168  1  0  0  0  0
 65169  1  0  0  0  0
 65170  1  0  0  0  0
 66171  1  0  0  0  0
 66172  1  0  0  0  0
 66173  1  0  0  0  0
 67 68  2  0  0  0  0
 67 69  1  0  0  0  0
 69 70  1  0  0  0  0
 69 71  1  0  0  0  0
 70174  1  0  0  0  0
 70175  1  0  0  0  0
 70176  1  0  0  0  0
 71 72  1  0  0  0  0
 71 76  1  0  0  0  0
 71177  1  6  0  0  0
 72 73  1  0  0  0  0
 72178  1  0  0  0  0
 72179  1  0  0  0  0
 73 74  1  0  0  0  0
 73 75  1  0  0  0  0
 73180  1  0  0  0  0
 74181  1  0  0  0  0
 74182  1  0  0  0  0
 74183  1  0  0  0  0
 75184  1  0  0  0  0
 75185  1  0  0  0  0
 75186  1  0  0  0  0
 76 77  2  0  0  0  0
 76 78  1  0  0  0  0
 78 79  1  0  0  0  0
 78 80  1  0  0  0  0
 79187  1  0  0  0  0
 79188  1  0  0  0  0
 79189  1  0  0  0  0
 80 81  1  0  0  0  0
 80 84  1  0  0  0  0
 80190  1  6  0  0  0
 81 82  1  0  0  0  0
 81 83  1  0  0  0  0
 81191  1  0  0  0  0
 82192  1  0  0  0  0
 82193  1  0  0  0  0
 82194  1  0  0  0  0
 83195  1  0  0  0  0
 83196  1  0  0  0  0
 83197  1  0  0  0  0
 84 85  2  0  0  0  0
 84 86  1  0  0  0  0
 86 87  1  0  0  0  0
 87198  1  0  0  0  0
 87199  1  0  0  0  0
 87200  1  0  0  0  0
M  END
>  <Energy>
633.191

$$$$