126
 OpenBabel03292022003D

144147  0  0  1  0  0  0  0  0999 V2000
    1.1869   -0.4458   -0.5069 C   0  0  0  0  0  0  0  0  0  0  0  0
    2.4989   -0.0396   -0.1162 O   0  0  0  0  0  0  0  0  0  0  0  0
    2.9641    1.1267   -0.8180 C   0  0  1  0  0  0  0  0  0  0  0  0
    4.3207    1.5661   -0.2340 C   0  0  0  0  0  0  0  0  0  0  0  0
    4.2891    2.4380    1.0314 C   0  0  2  0  0  0  0  0  0  0  0  0
    3.5217    1.8243    2.2048 C   0  0  0  0  0  0  0  0  0  0  0  0
    2.9841    2.8932    3.1445 C   0  0  0  0  0  0  0  0  0  0  0  0
    3.9278    4.0954    3.2156 C   0  0  1  0  0  0  0  0  0  0  0  0
    5.2485    3.7446    3.9103 C   0  0  0  0  0  0  0  0  0  0  0  0
    4.0558    4.7269    1.7839 C   0  0  1  0  0  0  0  0  0  0  0  0
    5.3399    5.3036    1.6110 O   0  0  0  0  0  0  0  0  0  0  0  0
    3.8264    3.7660    0.7402 O   0  0  0  0  0  0  0  0  0  0  0  0
    2.9914    5.8693    1.7255 C   0  0  0  0  0  0  0  0  0  0  0  0
    2.1025    6.0569    2.5401 O   0  0  0  0  0  0  0  0  0  0  0  0
    3.0351    6.8488    0.5714 C   0  0  0  0  0  0  0  0  0  0  0  0
    2.4083    6.5352   -0.4361 O   0  0  0  0  0  0  0  0  0  0  0  0
    3.5634    8.1328    0.8088 N   0  0  0  0  0  0  0  0  0  0  0  0
    4.2188    8.5224    2.0620 C   0  0  0  0  0  0  0  0  0  0  0  0
    3.4741    9.6769    2.7284 C   0  0  0  0  0  0  0  0  0  0  0  0
    3.3766   10.9043    1.8196 C   0  0  0  0  0  0  0  0  0  0  0  0
    3.6851   10.5854    0.3570 C   0  0  0  0  0  0  0  0  0  0  0  0
    3.0903    9.2295   -0.0773 C   0  0  1  0  0  0  0  0  0  0  0  0
    3.4168    8.9915   -1.5632 C   0  0  0  0  0  0  0  0  0  0  0  0
    4.0783    8.0545   -1.9883 O   0  0  0  0  0  0  0  0  0  0  0  0
    2.9296   10.0137   -2.3477 O   0  0  0  0  0  0  0  0  0  0  0  0
    3.2717    9.9433   -3.7612 C   0  0  2  0  0  0  0  0  0  0  0  0
    4.6554   10.6489   -4.0391 C   0  0  2  0  0  0  0  0  0  0  0  0
    4.6006   12.1614   -3.7783 C   0  0  0  0  0  0  0  0  0  0  0  0
    5.8031   10.0001   -3.2046 C   0  0  0  0  0  0  0  0  0  0  0  0
    7.2000   10.6562   -3.2010 C   0  0  2  0  0  0  0  0  0  0  0  0
    7.9186   10.6695   -4.5558 C   0  0  0  0  0  0  0  0  0  0  0  0
    8.8958    9.5218   -4.8263 C   0  0  0  0  0  0  0  0  0  0  0  0
    9.7501    9.1234   -3.6217 C   0  0  1  0  0  0  0  0  0  0  0  0
   10.7342   10.1283   -3.3553 O   0  0  0  0  0  0  0  0  0  0  0  0
    8.8963    8.8621   -2.3712 C   0  0  2  0  0  0  0  0  0  0  0  0
    8.0089    7.7548   -2.5404 O   0  0  0  0  0  0  0  0  0  0  0  0
    8.6459    6.4871   -2.4349 C   0  0  0  0  0  0  0  0  0  0  0  0
    8.0683   10.1091   -2.0441 C   0  0  0  0  0  0  0  0  0  0  0  0
    2.0909   10.5533   -4.5617 C   0  0  0  0  0  0  0  0  0  0  0  0
    1.8645    9.8536   -5.8963 C   0  0  0  0  0  0  0  0  0  0  0  0
    2.0593    8.6381   -5.9889 O   0  0  0  0  0  0  0  0  0  0  0  0
    1.4119   10.6971   -7.1219 C   0  0  2  0  0  0  0  0  0  0  0  0
    0.3658   11.7480   -6.7448 C   0  0  0  0  0  0  0  0  0  0  0  0
    0.8058    9.7623   -8.1593 C   0  0  0  0  0  0  0  0  0  0  0  0
    1.4027    9.0362   -9.1286 C   0  0  0  0  0  0  0  0  0  0  0  0
    2.8386    9.2470   -9.5440 C   0  0  0  0  0  0  0  0  0  0  0  0
    0.6327    7.9140   -9.8646 C   0  0  1  0  0  0  0  0  0  0  0  0
    1.2583    7.7860  -11.1469 O   0  0  0  0  0  0  0  0  0  0  0  0
    0.5837    6.5584   -9.0741 C   0  0  1  0  0  0  0  0  0  0  0  0
   -0.5830    6.2958   -8.2649 O   0  0  0  0  0  0  0  0  0  0  0  0
   -0.8136    7.1523   -7.1697 C   0  0  0  0  0  0  0  0  0  0  0  0
    0.4499    5.3641  -10.0235 C   0  0  0  0  0  0  0  0  0  0  0  0
   -0.2882    5.3772  -11.0121 O   0  0  0  0  0  0  0  0  0  0  0  0
    1.2562    4.1152   -9.6731 C   0  0  2  0  0  0  0  0  0  0  0  0
    2.5862    4.1741  -10.4161 C   0  0  0  0  0  0  0  0  0  0  0  0
    0.4389    2.8524  -10.0282 C   0  0  0  0  0  0  0  0  0  0  0  0
    0.8510    1.5909   -9.2485 C   0  0  2  0  0  0  0  0  0  0  0  0
    0.0095    0.3850   -9.6660 C   0  0  0  0  0  0  0  0  0  0  0  0
    0.6895    1.8048   -7.7663 C   0  0  0  0  0  0  0  0  0  0  0  0
    1.6055    1.4007   -6.8850 C   0  0  0  0  0  0  0  0  0  0  0  0
    1.4999    1.6499   -5.4739 C   0  0  0  0  0  0  0  0  0  0  0  0
    2.3953    1.1348   -4.6186 C   0  0  0  0  0  0  0  0  0  0  0  0
    2.3636    1.3794   -3.2035 C   0  0  0  0  0  0  0  0  0  0  0  0
    3.1347    0.7624   -2.2880 C   0  0  0  0  0  0  0  0  0  0  0  0
    4.1354   -0.3310   -2.5802 C   0  0  0  0  0  0  0  0  0  0  0  0
    0.8908   -1.2946    0.1155 H   0  0  0  0  0  0  0  0  0  0  0  0
    1.1688   -0.7840   -1.5477 H   0  0  0  0  0  0  0  0  0  0  0  0
    0.4673    0.3656   -0.3634 H   0  0  0  0  0  0  0  0  0  0  0  0
    2.2358    1.9362   -0.6821 H   0  0  0  0  0  0  0  0  0  0  0  0
    4.8686    2.1361   -0.9962 H   0  0  0  0  0  0  0  0  0  0  0  0
    4.9113    0.6692    0.0007 H   0  0  0  0  0  0  0  0  0  0  0  0
    5.3444    2.5271    1.3166 H   0  0  0  0  0  0  0  0  0  0  0  0
    4.1893    1.1408    2.7443 H   0  0  0  0  0  0  0  0  0  0  0  0
    2.6728    1.2186    1.8828 H   0  0  0  0  0  0  0  0  0  0  0  0
    2.7977    2.4692    4.1367 H   0  0  0  0  0  0  0  0  0  0  0  0
    2.0088    3.2279    2.7649 H   0  0  0  0  0  0  0  0  0  0  0  0
    3.4734    4.8240    3.8978 H   0  0  0  0  0  0  0  0  0  0  0  0
    5.8430    3.0100    3.3639 H   0  0  0  0  0  0  0  0  0  0  0  0
    5.0458    3.3313    4.9048 H   0  0  0  0  0  0  0  0  0  0  0  0
    5.8602    4.6415    4.0512 H   0  0  0  0  0  0  0  0  0  0  0  0
    5.9473    4.5614    1.4265 H   0  0  0  0  0  0  0  0  0  0  0  0
    5.2443    8.8267    1.8189 H   0  0  0  0  0  0  0  0  0  0  0  0
    4.2959    7.6811    2.7543 H   0  0  0  0  0  0  0  0  0  0  0  0
    3.9622    9.9555    3.6698 H   0  0  0  0  0  0  0  0  0  0  0  0
    2.4595    9.3491    2.9864 H   0  0  0  0  0  0  0  0  0  0  0  0
    4.0633   11.6858    2.1689 H   0  0  0  0  0  0  0  0  0  0  0  0
    2.3689   11.3304    1.9009 H   0  0  0  0  0  0  0  0  0  0  0  0
    4.7756   10.5717    0.2205 H   0  0  0  0  0  0  0  0  0  0  0  0
    3.3182   11.4061   -0.2709 H   0  0  0  0  0  0  0  0  0  0  0  0
    1.9985    9.2529    0.0186 H   0  0  0  0  0  0  0  0  0  0  0  0
    3.3639    8.8864   -4.0346 H   0  0  0  0  0  0  0  0  0  0  0  0
    4.8795   10.4981   -5.1018 H   0  0  0  0  0  0  0  0  0  0  0  0
    4.3458   12.3789   -2.7364 H   0  0  0  0  0  0  0  0  0  0  0  0
    3.8819   12.6706   -4.4230 H   0  0  0  0  0  0  0  0  0  0  0  0
    5.5569   12.6378   -4.0084 H   0  0  0  0  0  0  0  0  0  0  0  0
    5.4943   10.0439   -2.1573 H   0  0  0  0  0  0  0  0  0  0  0  0
    5.8883    8.9442   -3.4843 H   0  0  0  0  0  0  0  0  0  0  0  0
    7.0330   11.7041   -2.9282 H   0  0  0  0  0  0  0  0  0  0  0  0
    8.4910   11.6048   -4.6056 H   0  0  0  0  0  0  0  0  0  0  0  0
    7.2010   10.7289   -5.3822 H   0  0  0  0  0  0  0  0  0  0  0  0
    9.5622    9.8396   -5.6394 H   0  0  0  0  0  0  0  0  0  0  0  0
    8.3418    8.6490   -5.1893 H   0  0  0  0  0  0  0  0  0  0  0  0
   10.3107    8.2220   -3.8858 H   0  0  0  0  0  0  0  0  0  0  0  0
   10.3103   11.0001   -3.4191 H   0  0  0  0  0  0  0  0  0  0  0  0
    9.5454    8.6747   -1.5054 H   0  0  0  0  0  0  0  0  0  0  0  0
    7.8880    5.7092   -2.5647 H   0  0  0  0  0  0  0  0  0  0  0  0
    9.1033    6.3614   -1.4484 H   0  0  0  0  0  0  0  0  0  0  0  0
    9.3990    6.3562   -3.2160 H   0  0  0  0  0  0  0  0  0  0  0  0
    8.7537   10.9104   -1.7399 H   0  0  0  0  0  0  0  0  0  0  0  0
    7.4373    9.9081   -1.1686 H   0  0  0  0  0  0  0  0  0  0  0  0
    2.2367   11.6164   -4.7424 H   0  0  0  0  0  0  0  0  0  0  0  0
    1.1542   10.4707   -3.9948 H   0  0  0  0  0  0  0  0  0  0  0  0
    2.2975   11.2050   -7.5149 H   0  0  0  0  0  0  0  0  0  0  0  0
   -0.4413   11.3111   -6.1440 H   0  0  0  0  0  0  0  0  0  0  0  0
   -0.0830   12.2036   -7.6350 H   0  0  0  0  0  0  0  0  0  0  0  0
    0.8094   12.5571   -6.1571 H   0  0  0  0  0  0  0  0  0  0  0  0
   -0.2617    9.6200   -8.0239 H   0  0  0  0  0  0  0  0  0  0  0  0
    3.3470   10.0264   -8.9736 H   0  0  0  0  0  0  0  0  0  0  0  0
    2.8744    9.5683  -10.5931 H   0  0  0  0  0  0  0  0  0  0  0  0
    3.4153    8.3234   -9.4450 H   0  0  0  0  0  0  0  0  0  0  0  0
   -0.3905    8.2510  -10.0551 H   0  0  0  0  0  0  0  0  0  0  0  0
    2.0097    7.1757  -11.0770 H   0  0  0  0  0  0  0  0  0  0  0  0
    1.4894    6.4323   -8.4677 H   0  0  0  0  0  0  0  0  0  0  0  0
   -1.4957    6.6568   -6.4733 H   0  0  0  0  0  0  0  0  0  0  0  0
   -1.3328    8.0459   -7.5148 H   0  0  0  0  0  0  0  0  0  0  0  0
    0.1039    7.3857   -6.6328 H   0  0  0  0  0  0  0  0  0  0  0  0
    1.4475    4.1441   -8.5952 H   0  0  0  0  0  0  0  0  0  0  0  0
    2.4307    4.2328  -11.4993 H   0  0  0  0  0  0  0  0  0  0  0  0
    3.2033    3.2961  -10.2043 H   0  0  0  0  0  0  0  0  0  0  0  0
    3.1539    5.0643  -10.1230 H   0  0  0  0  0  0  0  0  0  0  0  0
    0.5226    2.6531  -11.1041 H   0  0  0  0  0  0  0  0  0  0  0  0
   -0.6269    3.0416   -9.8389 H   0  0  0  0  0  0  0  0  0  0  0  0
    1.9020    1.3642   -9.4830 H   0  0  0  0  0  0  0  0  0  0  0  0
   -1.0548    0.5433   -9.4554 H   0  0  0  0  0  0  0  0  0  0  0  0
    0.3240   -0.5165   -9.1259 H   0  0  0  0  0  0  0  0  0  0  0  0
    0.1190    0.1839  -10.7359 H   0  0  0  0  0  0  0  0  0  0  0  0
   -0.1999    2.3318   -7.4304 H   0  0  0  0  0  0  0  0  0  0  0  0
    2.4853    0.8526   -7.2345 H   0  0  0  0  0  0  0  0  0  0  0  0
    0.6820    2.2765   -5.1194 H   0  0  0  0  0  0  0  0  0  0  0  0
    3.1874    0.5102   -5.0157 H   0  0  0  0  0  0  0  0  0  0  0  0
    1.6408    2.1241   -2.8692 H   0  0  0  0  0  0  0  0  0  0  0  0
    4.1568   -0.6450   -3.6254 H   0  0  0  0  0  0  0  0  0  0  0  0
    3.9043   -1.2267   -1.9948 H   0  0  0  0  0  0  0  0  0  0  0  0
    5.1481   -0.0035   -2.3268 H   0  0  0  0  0  0  0  0  0  0  0  0
  1  2  1  0  0  0  0
  1 66  1  0  0  0  0
  1 67  1  0  0  0  0
  1 68  1  0  0  0  0
  2  3  1  0  0  0  0
  3  4  1  0  0  0  0
  3 64  1  0  0  0  0
  3 69  1  1  0  0  0
  4  5  1  0  0  0  0
  4 70  1  0  0  0  0
  4 71  1  0  0  0  0
  5  6  1  0  0  0  0
  5 12  1  0  0  0  0
  5 72  1  1  0  0  0
  6  7  1  0  0  0  0
  6 73  1  0  0  0  0
  6 74  1  0  0  0  0
  7  8  1  0  0  0  0
  7 75  1  0  0  0  0
  7 76  1  0  0  0  0
  8  9  1  0  0  0  0
  8 10  1  0  0  0  0
  8 77  1  1  0  0  0
  9 78  1  0  0  0  0
  9 79  1  0  0  0  0
  9 80  1  0  0  0  0
 10 11  1  6  0  0  0
 10 12  1  0  0  0  0
 10 13  1  0  0  0  0
 11 81  1  0  0  0  0
 13 14  2  0  0  0  0
 13 15  1  0  0  0  0
 15 16  2  0  0  0  0
 15 17  1  0  0  0  0
 17 18  1  0  0  0  0
 17 22  1  0  0  0  0
 18 19  1  0  0  0  0
 18 82  1  0  0  0  0
 18 83  1  0  0  0  0
 19 20  1  0  0  0  0
 19 84  1  0  0  0  0
 19 85  1  0  0  0  0
 20 21  1  0  0  0  0
 20 86  1  0  0  0  0
 20 87  1  0  0  0  0
 21 22  1  0  0  0  0
 21 88  1  0  0  0  0
 21 89  1  0  0  0  0
 22 23  1  0  0  0  0
 22 90  1  1  0  0  0
 23 24  2  0  0  0  0
 23 25  1  0  0  0  0
 25 26  1  0  0  0  0
 26 39  1  0  0  0  0
 26 27  1  0  0  0  0
 26 91  1  6  0  0  0
 27 29  1  0  0  0  0
 27 28  1  0  0  0  0
 27 92  1  1  0  0  0
 28 93  1  0  0  0  0
 28 94  1  0  0  0  0
 28 95  1  0  0  0  0
 29 30  1  0  0  0  0
 29 96  1  0  0  0  0
 29 97  1  0  0  0  0
 30 31  1  0  0  0  0
 30 38  1  0  0  0  0
 30 98  1  1  0  0  0
 31 32  1  0  0  0  0
 31 99  1  0  0  0  0
 31100  1  0  0  0  0
 32 33  1  0  0  0  0
 32101  1  0  0  0  0
 32102  1  0  0  0  0
 33 35  1  0  0  0  0
 33 34  1  0  0  0  0
 33103  1  6  0  0  0
 34104  1  0  0  0  0
 35 38  1  0  0  0  0
 35 36  1  0  0  0  0
 35105  1  1  0  0  0
 36 37  1  0  0  0  0
 37106  1  0  0  0  0
 37107  1  0  0  0  0
 37108  1  0  0  0  0
 38109  1  0  0  0  0
 38110  1  0  0  0  0
 39 40  1  0  0  0  0
 39111  1  0  0  0  0
 39112  1  0  0  0  0
 40 41  2  0  0  0  0
 40 42  1  0  0  0  0
 42 43  1  0  0  0  0
 42 44  1  0  0  0  0
 42113  1  6  0  0  0
 43114  1  0  0  0  0
 43115  1  0  0  0  0
 43116  1  0  0  0  0
 44 45  2  0  0  0  0
 44117  1  0  0  0  0
 45 46  1  0  0  0  0
 45 47  1  0  0  0  0
 46118  1  0  0  0  0
 46119  1  0  0  0  0
 46120  1  0  0  0  0
 47 48  1  0  0  0  0
 47 49  1  0  0  0  0
 47121  1  6  0  0  0
 48122  1  0  0  0  0
 49 50  1  0  0  0  0
 49 52  1  0  0  0  0
 49123  1  1  0  0  0
 50 51  1  0  0  0  0
 51124  1  0  0  0  0
 51125  1  0  0  0  0
 51126  1  0  0  0  0
 52 53  2  0  0  0  0
 52 54  1  0  0  0  0
 54 55  1  0  0  0  0
 54 56  1  0  0  0  0
 54127  1  1  0  0  0
 55128  1  0  0  0  0
 55129  1  0  0  0  0
 55130  1  0  0  0  0
 56 57  1  0  0  0  0
 56131  1  0  0  0  0
 56132  1  0  0  0  0
 57 58  1  0  0  0  0
 57 59  1  0  0  0  0
 57133  1  6  0  0  0
 58134  1  0  0  0  0
 58135  1  0  0  0  0
 58136  1  0  0  0  0
 59 60  2  0  0  0  0
 59137  1  0  0  0  0
 60 61  1  0  0  0  0
 60138  1  0  0  0  0
 61 62  2  0  0  0  0
 61139  1  0  0  0  0
 62 63  1  0  0  0  0
 62140  1  0  0  0  0
 63 64  2  0  0  0  0
 63141  1  0  0  0  0
 64 65  1  0  0  0  0
 65142  1  0  0  0  0
 65143  1  0  0  0  0
 65144  1  0  0  0  0
M  END
>  <Energy>
303.745

$$$$