56945528
  -OEChem-03242010103D

 42 44  0     0  0  0  0  0  0999 V2000
   -1.0442   -2.4579    0.8321 F   0  0  0  0  0  0  0  0  0  0  0  0
    6.2178    1.7047    0.3652 O   0  0  0  0  0  0  0  0  0  0  0  0
    4.9403   -2.8611   -0.3097 O   0  0  0  0  0  0  0  0  0  0  0  0
    1.2920    1.7584   -0.7243 O   0  0  0  0  0  0  0  0  0  0  0  0
    6.9087   -0.9692    0.1510 O   0  0  0  0  0  0  0  0  0  0  0  0
    0.5724   -0.3567    0.0092 N   0  0  0  0  0  0  0  0  0  0  0  0
   -3.5976   -0.0042    0.0111 C   0  0  0  0  0  0  0  0  0  0  0  0
   -0.8180   -0.2406    0.0110 C   0  0  0  0  0  0  0  0  0  0  0  0
   -5.0393    0.1177    0.0095 C   0  0  0  0  0  0  0  0  0  0  0  0
    2.9393    0.1965   -0.2159 C   0  0  0  0  0  0  0  0  0  0  0  0
   -2.9987   -1.1923    0.4295 C   0  0  0  0  0  0  0  0  0  0  0  0
   -2.8066    1.0659   -0.4074 C   0  0  0  0  0  0  0  0  0  0  0  0
   -1.6090   -1.3106    0.4295 C   0  0  0  0  0  0  0  0  0  0  0  0
   -1.4168    0.9477   -0.4075 C   0  0  0  0  0  0  0  0  0  0  0  0
    1.5185    0.6142   -0.3456 C   0  0  0  0  0  0  0  0  0  0  0  0
    3.9283    1.1525    0.0159 C   0  0  0  0  0  0  0  0  0  0  0  0
    3.2837   -1.1508   -0.3247 C   0  0  0  0  0  0  0  0  0  0  0  0
    5.2615    0.7612    0.1389 C   0  0  0  0  0  0  0  0  0  0  0  0
   -5.6999    0.5943    1.1418 C   0  0  0  0  0  0  0  0  0  0  0  0
   -5.7686   -0.2414   -1.1239 C   0  0  0  0  0  0  0  0  0  0  0  0
    4.6169   -1.5421   -0.2017 C   0  0  0  0  0  0  0  0  0  0  0  0
    5.6057   -0.5861    0.0302 C   0  0  0  0  0  0  0  0  0  0  0  0
   -7.0899    0.7119    1.1407 C   0  0  0  0  0  0  0  0  0  0  0  0
   -7.1584   -0.1238   -1.1252 C   0  0  0  0  0  0  0  0  0  0  0  0
   -7.8191    0.3528    0.0072 C   0  0  0  0  0  0  0  0  0  0  0  0
    5.7811    3.0590    0.4632 C   0  0  0  0  0  0  0  0  0  0  0  0
   -3.6003   -2.0364    0.7583 H   0  0  0  0  0  0  0  0  0  0  0  0
   -3.2588    1.9983   -0.7379 H   0  0  0  0  0  0  0  0  0  0  0  0
   -0.8753    1.8177   -0.7507 H   0  0  0  0  0  0  0  0  0  0  0  0
    0.9060   -1.2493    0.3618 H   0  0  0  0  0  0  0  0  0  0  0  0
    3.6087    2.1854    0.1005 H   0  0  0  0  0  0  0  0  0  0  0  0
    2.5428   -1.9145   -0.5432 H   0  0  0  0  0  0  0  0  0  0  0  0
   -5.1467    0.8786    2.0338 H   0  0  0  0  0  0  0  0  0  0  0  0
   -5.2694   -0.6147   -2.0150 H   0  0  0  0  0  0  0  0  0  0  0  0
   -7.6044    1.0830    2.0222 H   0  0  0  0  0  0  0  0  0  0  0  0
   -7.7264   -0.4033   -2.0077 H   0  0  0  0  0  0  0  0  0  0  0  0
   -8.9013    0.4443    0.0061 H   0  0  0  0  0  0  0  0  0  0  0  0
    4.1304   -3.3764   -0.4661 H   0  0  0  0  0  0  0  0  0  0  0  0
    6.9555   -1.9356    0.0481 H   0  0  0  0  0  0  0  0  0  0  0  0
    6.6712    3.6715    0.6417 H   0  0  0  0  0  0  0  0  0  0  0  0
    5.1170    3.2086    1.3213 H   0  0  0  0  0  0  0  0  0  0  0  0
    5.3386    3.4102   -0.4753 H   0  0  0  0  0  0  0  0  0  0  0  0
  1 13  1  0  0  0  0
  2 18  1  0  0  0  0
  2 26  1  0  0  0  0
  3 21  1  0  0  0  0
  3 38  1  0  0  0  0
  4 15  2  0  0  0  0
  5 22  1  0  0  0  0
  5 39  1  0  0  0  0
  6  8  1  0  0  0  0
  6 15  1  0  0  0  0
  6 30  1  0  0  0  0
  7  9  1  0  0  0  0
  7 11  2  0  0  0  0
  7 12  1  0  0  0  0
  8 13  2  0  0  0  0
  8 14  1  0  0  0  0
  9 19  2  0  0  0  0
  9 20  1  0  0  0  0
 10 15  1  0  0  0  0
 10 16  1  0  0  0  0
 10 17  2  0  0  0  0
 11 13  1  0  0  0  0
 11 27  1  0  0  0  0
 12 14  2  0  0  0  0
 12 28  1  0  0  0  0
 14 29  1  0  0  0  0
 16 18  2  0  0  0  0
 16 31  1  0  0  0  0
 17 21  1  0  0  0  0
 17 32  1  0  0  0  0
 18 22  1  0  0  0  0
 19 23  1  0  0  0  0
 19 33  1  0  0  0  0
 20 24  2  0  0  0  0
 20 34  1  0  0  0  0
 21 22  2  0  0  0  0
 23 25  2  0  0  0  0
 23 35  1  0  0  0  0
 24 25  1  0  0  0  0
 24 36  1  0  0  0  0
 25 37  1  0  0  0  0
 26 40  1  0  0  0  0
 26 41  1  0  0  0  0
 26 42  1  0  0  0  0
M  END
> <PUBCHEM_COMPOUND_CID>
56945528

> <PUBCHEM_CONFORMER_RMSD>
0.8

> <PUBCHEM_CONFORMER_DIVERSEORDER>
2
13
14
3
9
8
10
6
4
12
1
11
15
5
7

> <PUBCHEM_MMFF94_PARTIAL_CHARGES>
37
1 -0.19
10 0.09
11 -0.15
12 -0.15
13 0.19
14 -0.15
15 0.54
16 -0.15
17 -0.15
18 0.08
19 -0.15
2 -0.36
20 -0.15
21 0.08
22 0.08
23 -0.15
24 -0.15
25 -0.15
26 0.28
27 0.15
28 0.15
29 0.15
3 -0.53
30 0.37
31 0.15
32 0.15
33 0.15
34 0.15
35 0.15
36 0.15
37 0.15
38 0.45
39 0.45
4 -0.57
5 -0.53
6 -0.55
8 0.12

> <PUBCHEM_EFFECTIVE_ROTOR_COUNT>
5

> <PUBCHEM_PHARMACOPHORE_FEATURES>
8
1 2 acceptor
1 3 donor
1 4 acceptor
1 5 donor
1 6 donor
6 10 16 17 18 21 22 rings
6 7 8 11 12 13 14 rings
6 9 19 20 23 24 25 rings

> <PUBCHEM_HEAVY_ATOM_COUNT>
26

> <PUBCHEM_ATOM_DEF_STEREO_COUNT>
0

> <PUBCHEM_ATOM_UDEF_STEREO_COUNT>
0

> <PUBCHEM_BOND_DEF_STEREO_COUNT>
0

> <PUBCHEM_BOND_UDEF_STEREO_COUNT>
0

> <PUBCHEM_ISOTOPIC_ATOM_COUNT>
0

> <PUBCHEM_COMPONENT_COUNT>
1

> <PUBCHEM_CACTVS_TAUTO_COUNT>
22

> <PUBCHEM_CONFORMER_ID>
0364EB7800000002

> <PUBCHEM_MMFF94_ENERGY>
92.6616

> <PUBCHEM_FEATURE_SELFOVERLAP>
40.601

> <PUBCHEM_SHAPE_FINGERPRINT>
10 15 17676203615309837100
10299344 5 17917710197562373495
10411042 1 18052540964285114294
10835480 77 18339078310628565880
11315181 36 18060700616136005921
11719270 70 14851598869263695216
12107698 1 17346596370305351497
12166972 35 18342459235838300401
12236239 1 18131350796192452887
12516196 113 18273493472481025969
13533116 47 18272651221252511458
13685833 64 18260551095466927150
14170010 4 18261111889479050676
14251764 18 18131633396134304805
14251764 46 18272651247328133734
14849402 71 18130228267646015169
14856354 85 16702018708656700093
15183329 4 18410855447417528275
15419008 47 17385716993884712301
15419008 91 17604415388794050029
1577012 14 18131917057497327937
15849732 13 17167583791096376047
16120349 18 18341608247913062832
19141452 34 18336266824720197055
19427546 62 18338234994411633462
20157964 124 18413670219081308502
20281389 69 18335138691709961161
21130935 74 18412829092507342083
21236236 1 18336828581501144989
21267235 1 18338239267867169870
21781051 124 17314536823363883939
21792934 111 18335692824116791896
21859007 373 17313927667730228045
22224240 67 18260268560419414595
23035841 295 12251900404491948073
23081809 10 17846779603037835333
23522609 53 17774179979738065177
23536379 177 17632578228235293935
23559900 14 18339918346154985881
23569943 247 18122345679528625715
255183 451 17773047346055595710
3004659 81 18187083941013682198
335352 9 18333734627945331263
34797466 226 17918280861488432012
3545911 37 18335140895307362732
3633792 109 18409443666319723701
397830 11 17386863883412423497
4073 2 18262240035580079082
44555599 121 17988933266523009721
5104073 3 18334861661860690530
59755656 215 17749669602064571627
59755656 520 18410569605108261959

> <PUBCHEM_SHAPE_MULTIPOLES>
499.34
22.03
2.11
0.9
9.91
0
0.01
-3.57
0.9
-4.65
0.23
1.31
-0.04
0.2

> <PUBCHEM_SHAPE_SELFOVERLAP>
1097.778

> <PUBCHEM_SHAPE_VOLUME>
270.2

> <PUBCHEM_COORDINATE_TYPE>
2
5
10

$$$$