56946616
  -OEChem-03242010103D

 45 47  0     0  0  0  0  0  0999 V2000
    5.6618    1.7420   -1.0346 O   0  0  0  0  0  0  0  0  0  0  0  0
    5.7325   -2.5081    1.1713 O   0  0  0  0  0  0  0  0  0  0  0  0
    7.0448   -0.2057    0.3654 O   0  0  0  0  0  0  0  0  0  0  0  0
   -0.5635    1.0190    2.9341 O   0  5  0  0  0  0  0  0  0  0  0  0
   -0.5123    2.6622    1.4791 O   0  0  0  0  0  0  0  0  0  0  0  0
    0.7523   -0.1349    0.0204 N   0  0  0  0  0  0  0  0  0  0  0  0
   -0.8012    1.4843    1.7949 N   0  3  0  0  0  0  0  0  0  0  0  0
    1.5665   -0.9271   -0.8461 C   0  0  0  0  0  0  0  0  0  0  0  0
   -0.6597   -0.1425   -0.0371 C   0  0  0  0  0  0  0  0  0  0  0  0
    3.0223   -0.7348   -0.5232 C   0  0  0  0  0  0  0  0  0  0  0  0
   -3.4446   -0.1930   -0.1919 C   0  0  0  0  0  0  0  0  0  0  0  0
   -1.4206    0.6457    0.8261 C   0  0  0  0  0  0  0  0  0  0  0  0
   -2.8130    0.6205    0.7488 C   0  0  0  0  0  0  0  0  0  0  0  0
   -1.2913   -0.9561   -0.9780 C   0  0  0  0  0  0  0  0  0  0  0  0
   -2.6837   -0.9814   -1.0553 C   0  0  0  0  0  0  0  0  0  0  0  0
   -4.8890   -0.2204   -0.2722 C   0  0  0  0  0  0  0  0  0  0  0  0
    3.6799    0.4261   -0.9302 C   0  0  0  0  0  0  0  0  0  0  0  0
    3.7158   -1.7180    0.1825 C   0  0  0  0  0  0  0  0  0  0  0  0
    5.0308    0.6037   -0.6316 C   0  0  0  0  0  0  0  0  0  0  0  0
    5.0668   -1.5404    0.4810 C   0  0  0  0  0  0  0  0  0  0  0  0
    5.7242   -0.3795    0.0738 C   0  0  0  0  0  0  0  0  0  0  0  0
   -5.5575    0.6704   -1.1119 C   0  0  0  0  0  0  0  0  0  0  0  0
   -5.6128   -1.1371    0.4900 C   0  0  0  0  0  0  0  0  0  0  0  0
   -6.9500    0.6443   -1.1896 C   0  0  0  0  0  0  0  0  0  0  0  0
   -7.0053   -1.1633    0.4124 C   0  0  0  0  0  0  0  0  0  0  0  0
   -7.6739   -0.2725   -0.4273 C   0  0  0  0  0  0  0  0  0  0  0  0
    4.8808    2.6967   -1.7508 C   0  0  0  0  0  0  0  0  0  0  0  0
    1.4080   -0.6539   -1.8975 H   0  0  0  0  0  0  0  0  0  0  0  0
    1.3180   -1.9917   -0.7496 H   0  0  0  0  0  0  0  0  0  0  0  0
    1.1923    0.4598    0.7135 H   0  0  0  0  0  0  0  0  0  0  0  0
   -3.4055    1.2363    1.4235 H   0  0  0  0  0  0  0  0  0  0  0  0
   -0.7437   -1.5854   -1.6726 H   0  0  0  0  0  0  0  0  0  0  0  0
   -3.1608   -1.6207   -1.7945 H   0  0  0  0  0  0  0  0  0  0  0  0
    3.0886    1.1543   -1.4754 H   0  0  0  0  0  0  0  0  0  0  0  0
    3.2035   -2.6223    0.5022 H   0  0  0  0  0  0  0  0  0  0  0  0
   -5.0086    1.3916   -1.7129 H   0  0  0  0  0  0  0  0  0  0  0  0
   -5.1074   -1.8384    1.1498 H   0  0  0  0  0  0  0  0  0  0  0  0
   -7.4707    1.3379   -1.8434 H   0  0  0  0  0  0  0  0  0  0  0  0
   -7.5691   -1.8771    1.0059 H   0  0  0  0  0  0  0  0  0  0  0  0
   -8.7581   -0.2928   -0.4877 H   0  0  0  0  0  0  0  0  0  0  0  0
    5.1188   -3.2364    1.3686 H   0  0  0  0  0  0  0  0  0  0  0  0
    7.3560   -0.9860    0.8563 H   0  0  0  0  0  0  0  0  0  0  0  0
    4.5219    2.2921   -2.7033 H   0  0  0  0  0  0  0  0  0  0  0  0
    4.0688    3.0981   -1.1347 H   0  0  0  0  0  0  0  0  0  0  0  0
    5.5408    3.5366   -1.9917 H   0  0  0  0  0  0  0  0  0  0  0  0
  1 19  1  0  0  0  0
  1 27  1  0  0  0  0
  2 20  1  0  0  0  0
  2 41  1  0  0  0  0
  3 21  1  0  0  0  0
  3 42  1  0  0  0  0
  4  7  1  0  0  0  0
  5  7  2  0  0  0  0
  6  8  1  0  0  0  0
  6  9  1  0  0  0  0
  6 30  1  0  0  0  0
  7 12  1  0  0  0  0
  8 10  1  0  0  0  0
  8 28  1  0  0  0  0
  8 29  1  0  0  0  0
  9 12  2  0  0  0  0
  9 14  1  0  0  0  0
 10 17  1  0  0  0  0
 10 18  2  0  0  0  0
 11 13  2  0  0  0  0
 11 15  1  0  0  0  0
 11 16  1  0  0  0  0
 12 13  1  0  0  0  0
 13 31  1  0  0  0  0
 14 15  2  0  0  0  0
 14 32  1  0  0  0  0
 15 33  1  0  0  0  0
 16 22  2  0  0  0  0
 16 23  1  0  0  0  0
 17 19  2  0  0  0  0
 17 34  1  0  0  0  0
 18 20  1  0  0  0  0
 18 35  1  0  0  0  0
 19 21  1  0  0  0  0
 20 21  2  0  0  0  0
 22 24  1  0  0  0  0
 22 36  1  0  0  0  0
 23 25  2  0  0  0  0
 23 37  1  0  0  0  0
 24 26  2  0  0  0  0
 24 38  1  0  0  0  0
 25 26  1  0  0  0  0
 25 39  1  0  0  0  0
 26 40  1  0  0  0  0
 27 43  1  0  0  0  0
 27 44  1  0  0  0  0
 27 45  1  0  0  0  0
M  CHG  2   4  -1   7   1
M  END
> <PUBCHEM_COMPOUND_CID>
56946616

> <PUBCHEM_CONFORMER_RMSD>
0.8

> <PUBCHEM_CONFORMER_DIVERSEORDER>
1
43
56
46
27
5
40
60
30
35
50
52
57
47
25
14
19
13
53
44
42
21
38
49
54
32
48
58
29
24
8
15
51
39
31
20
3
9
26
7
4
6
45
36
59
33
2
16
41
12
55
22
28
18
23
34
17
37
10
11

> <PUBCHEM_MMFF94_PARTIAL_CHARGES>
38
1 -0.36
10 -0.14
12 0.13
13 -0.15
14 -0.15
15 -0.15
17 -0.15
18 -0.15
19 0.08
2 -0.53
20 0.08
21 0.08
22 -0.15
23 -0.15
24 -0.15
25 -0.15
26 -0.15
27 0.28
3 -0.53
30 0.4
31 0.15
32 0.15
33 0.15
34 0.15
35 0.15
36 0.15
37 0.15
38 0.15
39 0.15
4 -0.52
40 0.15
41 0.45
42 0.45
5 -0.52
6 -0.87
7 0.91
8 0.51
9 0.1

> <PUBCHEM_EFFECTIVE_ROTOR_COUNT>
6

> <PUBCHEM_PHARMACOPHORE_FEATURES>
11
1 1 acceptor
1 2 donor
1 3 donor
1 4 acceptor
1 4 anion
1 5 acceptor
1 6 cation
1 6 donor
6 10 17 18 19 20 21 rings
6 16 22 23 24 25 26 rings
6 9 11 12 13 14 15 rings

> <PUBCHEM_HEAVY_ATOM_COUNT>
27

> <PUBCHEM_ATOM_DEF_STEREO_COUNT>
0

> <PUBCHEM_ATOM_UDEF_STEREO_COUNT>
0

> <PUBCHEM_BOND_DEF_STEREO_COUNT>
0

> <PUBCHEM_BOND_UDEF_STEREO_COUNT>
0

> <PUBCHEM_ISOTOPIC_ATOM_COUNT>
0

> <PUBCHEM_COMPONENT_COUNT>
1

> <PUBCHEM_CACTVS_TAUTO_COUNT>
10

> <PUBCHEM_CONFORMER_ID>
0364EFB800000001

> <PUBCHEM_MMFF94_ENERGY>
105.4482

> <PUBCHEM_FEATURE_SELFOVERLAP>
55.907

> <PUBCHEM_SHAPE_FINGERPRINT>
102385 1 16983191482330036895
10670039 82 17631471011636954732
10906281 52 17845392023801240615
11719270 70 18341327816692903502
12166972 35 18334860511152469524
12236239 1 18408885113922157679
12516196 113 16845570920476418003
12788726 201 17989213615885303482
13533116 47 17822290154914835442
13617811 41 17275393109312476140
13899415 154 17561086933961501923
13914758 101 17749105535097653133
14840074 17 16343702119354345605
14933364 13 18040152916301375271
15131766 46 17899138497182620660
15183329 4 18259704480246282389
15927050 60 16911983819096020768
17492 89 17842846512380590918
18006028 8 17418371389938777793
18222031 100 16702302356164026041
19319366 153 18342733005469907750
20157964 124 18187086161401076134
21033648 29 16298671702570380620
21315763 28 18186800275139628671
21344244 78 18337656531147213440
21641784 216 17988096520820504409
21792934 111 17988631966003010673
22149856 69 17560538222136416403
23198884 109 17603585214896935045
23522609 53 18128282093378399857
23536379 177 17967249780700009287
23559900 14 18188486995460939505
23569914 2 17101662627652515789
23569943 247 16010701720825304458
23576562 1 17987506182804584029
24771293 8 16128362800854907155
24771750 20 17769938201327588261
2747138 104 16271931549538865807
3004659 81 18413110541819386846
3178227 256 18059866095237441515
335352 9 17704066305858091877
404807 14 17104238490858433723
4073 2 17241334693139122026
4098825 35 18040712554555832701

> <PUBCHEM_SHAPE_MULTIPOLES>
516.34
20.62
2
1.55
7.39
0.66
-0.98
-2.2
4.17
-3.42
-0.07
0.25
0.76
-1.37

> <PUBCHEM_SHAPE_SELFOVERLAP>
1125.896

> <PUBCHEM_SHAPE_VOLUME>
280.9

> <PUBCHEM_COORDINATE_TYPE>
2
5
10

$$$$