25157257
  -OEChem-03242010103D

 64 67  0     0  0  0  0  0  0999 V2000
   -2.7754    2.0866    0.3760 O   0  0  0  0  0  0  0  0  0  0  0  0
   -0.2013   -2.9876   -0.1572 O   0  0  0  0  0  0  0  0  0  0  0  0
    1.7746    0.6373   -0.4570 N   0  0  0  0  0  0  0  0  0  0  0  0
    4.6154    0.4965   -0.1943 N   0  0  0  0  0  0  0  0  0  0  0  0
    6.5310    1.1200    0.9877 N   0  0  0  0  0  0  0  0  0  0  0  0
    6.6263   -0.5604   -0.7369 N   0  0  0  0  0  0  0  0  0  0  0  0
    2.5495    1.8356   -0.1128 C   0  0  0  0  0  0  0  0  0  0  0  0
    2.5604   -0.2270   -1.3465 C   0  0  0  0  0  0  0  0  0  0  0  0
    3.8515    1.4628    0.6007 C   0  0  0  0  0  0  0  0  0  0  0  0
    3.8619   -0.6691   -0.6735 C   0  0  0  0  0  0  0  0  0  0  0  0
    0.5092    1.0086   -1.0891 C   0  0  0  0  0  0  0  0  0  0  0  0
   -0.5206    1.3877   -0.0298 C   0  0  0  0  0  0  0  0  0  0  0  0
    5.9885    0.3450    0.0293 C   0  0  0  0  0  0  0  0  0  0  0  0
   -1.8572    1.7590   -0.6578 C   0  0  0  0  0  0  0  0  0  0  0  0
   -4.1017    1.8500    0.1231 C   0  0  0  0  0  0  0  0  0  0  0  0
   -4.8357    0.9760    0.9249 C   0  0  0  0  0  0  0  0  0  0  0  0
   -4.1946    0.2785    2.0788 C   0  0  0  0  0  0  0  0  0  0  0  0
   -4.2537   -1.2589    1.9931 C   0  0  0  0  0  0  0  0  0  0  0  0
    7.8559    0.9483    1.1767 C   0  0  0  0  0  0  0  0  0  0  0  0
    7.9481   -0.6805   -0.4950 C   0  0  0  0  0  0  0  0  0  0  0  0
   -4.7164    2.4941   -0.9506 C   0  0  0  0  0  0  0  0  0  0  0  0
   -6.1843    0.7459    0.6528 C   0  0  0  0  0  0  0  0  0  0  0  0
   -3.5354   -1.8154    0.7879 C   0  0  0  0  0  0  0  0  0  0  0  0
    8.6232    0.0545    0.4581 C   0  0  0  0  0  0  0  0  0  0  0  0
   -6.0649    2.2640   -1.2227 C   0  0  0  0  0  0  0  0  0  0  0  0
   -6.7990    1.3900   -0.4210 C   0  0  0  0  0  0  0  0  0  0  0  0
   -2.1834   -2.1478    0.8733 C   0  0  0  0  0  0  0  0  0  0  0  0
   -4.2240   -1.9976   -0.4113 C   0  0  0  0  0  0  0  0  0  0  0  0
   -1.5202   -2.6626   -0.2405 C   0  0  0  0  0  0  0  0  0  0  0  0
   -3.5606   -2.5122   -1.5253 C   0  0  0  0  0  0  0  0  0  0  0  0
   -2.2088   -2.8447   -1.4398 C   0  0  0  0  0  0  0  0  0  0  0  0
    0.4417   -2.7761    1.0989 C   0  0  0  0  0  0  0  0  0  0  0  0
    1.9845    2.4926    0.5569 H   0  0  0  0  0  0  0  0  0  0  0  0
    2.7846    2.4172   -1.0148 H   0  0  0  0  0  0  0  0  0  0  0  0
    2.7881    0.2914   -2.2877 H   0  0  0  0  0  0  0  0  0  0  0  0
    1.9887   -1.1286   -1.5989 H   0  0  0  0  0  0  0  0  0  0  0  0
    4.4190    2.3895    0.7502 H   0  0  0  0  0  0  0  0  0  0  0  0
    3.6366    1.0378    1.5894 H   0  0  0  0  0  0  0  0  0  0  0  0
    3.6459   -1.3346    0.1723 H   0  0  0  0  0  0  0  0  0  0  0  0
    4.4269   -1.2493   -1.4122 H   0  0  0  0  0  0  0  0  0  0  0  0
    0.6393    1.8138   -1.8236 H   0  0  0  0  0  0  0  0  0  0  0  0
    0.1009    0.1500   -1.6389 H   0  0  0  0  0  0  0  0  0  0  0  0
   -0.6692    0.5602    0.6748 H   0  0  0  0  0  0  0  0  0  0  0  0
   -0.1814    2.2347    0.5778 H   0  0  0  0  0  0  0  0  0  0  0  0
   -2.2280    0.9166   -1.2562 H   0  0  0  0  0  0  0  0  0  0  0  0
   -1.7370    2.6285   -1.3141 H   0  0  0  0  0  0  0  0  0  0  0  0
   -3.1477    0.5802    2.2024 H   0  0  0  0  0  0  0  0  0  0  0  0
   -4.7016    0.5996    2.9983 H   0  0  0  0  0  0  0  0  0  0  0  0
   -5.2921   -1.6136    1.9928 H   0  0  0  0  0  0  0  0  0  0  0  0
   -3.8094   -1.6804    2.9044 H   0  0  0  0  0  0  0  0  0  0  0  0
    8.2985    1.5701    1.9475 H   0  0  0  0  0  0  0  0  0  0  0  0
    8.4674   -1.4085   -1.1092 H   0  0  0  0  0  0  0  0  0  0  0  0
   -4.1600    3.1842   -1.5790 H   0  0  0  0  0  0  0  0  0  0  0  0
   -6.7759    0.0781    1.2730 H   0  0  0  0  0  0  0  0  0  0  0  0
    9.6846   -0.0626    0.6308 H   0  0  0  0  0  0  0  0  0  0  0  0
   -6.5442    2.7672   -2.0573 H   0  0  0  0  0  0  0  0  0  0  0  0
   -7.8497    1.2132   -0.6312 H   0  0  0  0  0  0  0  0  0  0  0  0
   -1.6967   -1.9822    1.8288 H   0  0  0  0  0  0  0  0  0  0  0  0
   -5.2808   -1.7618   -0.4931 H   0  0  0  0  0  0  0  0  0  0  0  0
   -4.0977   -2.6573   -2.4581 H   0  0  0  0  0  0  0  0  0  0  0  0
   -1.6974   -3.2455   -2.3107 H   0  0  0  0  0  0  0  0  0  0  0  0
    1.4859   -3.0847    0.9825 H   0  0  0  0  0  0  0  0  0  0  0  0
    0.0080   -3.4048    1.8840 H   0  0  0  0  0  0  0  0  0  0  0  0
    0.4525   -1.7162    1.3738 H   0  0  0  0  0  0  0  0  0  0  0  0
  1 14  1  0  0  0  0
  1 15  1  0  0  0  0
  2 29  1  0  0  0  0
  2 32  1  0  0  0  0
  3  7  1  0  0  0  0
  3  8  1  0  0  0  0
  3 11  1  0  0  0  0
  4  9  1  0  0  0  0
  4 10  1  0  0  0  0
  4 13  1  0  0  0  0
  5 13  2  0  0  0  0
  5 19  1  0  0  0  0
  6 13  1  0  0  0  0
  6 20  2  0  0  0  0
  7  9  1  0  0  0  0
  7 33  1  0  0  0  0
  7 34  1  0  0  0  0
  8 10  1  0  0  0  0
  8 35  1  0  0  0  0
  8 36  1  0  0  0  0
  9 37  1  0  0  0  0
  9 38  1  0  0  0  0
 10 39  1  0  0  0  0
 10 40  1  0  0  0  0
 11 12  1  0  0  0  0
 11 41  1  0  0  0  0
 11 42  1  0  0  0  0
 12 14  1  0  0  0  0
 12 43  1  0  0  0  0
 12 44  1  0  0  0  0
 14 45  1  0  0  0  0
 14 46  1  0  0  0  0
 15 16  1  0  0  0  0
 15 21  2  0  0  0  0
 16 17  1  0  0  0  0
 16 22  2  0  0  0  0
 17 18  1  0  0  0  0
 17 47  1  0  0  0  0
 17 48  1  0  0  0  0
 18 23  1  0  0  0  0
 18 49  1  0  0  0  0
 18 50  1  0  0  0  0
 19 24  2  0  0  0  0
 19 51  1  0  0  0  0
 20 24  1  0  0  0  0
 20 52  1  0  0  0  0
 21 25  1  0  0  0  0
 21 53  1  0  0  0  0
 22 26  1  0  0  0  0
 22 54  1  0  0  0  0
 23 27  2  0  0  0  0
 23 28  1  0  0  0  0
 24 55  1  0  0  0  0
 25 26  2  0  0  0  0
 25 56  1  0  0  0  0
 26 57  1  0  0  0  0
 27 29  1  0  0  0  0
 27 58  1  0  0  0  0
 28 30  2  0  0  0  0
 28 59  1  0  0  0  0
 29 31  2  0  0  0  0
 30 31  1  0  0  0  0
 30 60  1  0  0  0  0
 31 61  1  0  0  0  0
 32 62  1  0  0  0  0
 32 63  1  0  0  0  0
 32 64  1  0  0  0  0
M  END
> <PUBCHEM_COMPOUND_CID>
25157257

> <PUBCHEM_CONFORMER_RMSD>
1.6

> <PUBCHEM_CONFORMER_DIVERSEORDER>
1
85
26
42
67
30
37
12
56
68
74
88
9
31
49
25
66
70
84
45
35
77
78
72
34
81
60
24
48
93
79
62
6
58
8
71
73
83
65
22
41
64
36
76
61
38
52
80
82
13
43
63
94
91
90
29
53
55
16
7
18
86
92
54
44
50
89
69
47
15
3
11
28
17
4
39
20
87
75
46
27
51
14
32
59
21
19
57
2
23
5
10
40
33

> <PUBCHEM_MMFF94_PARTIAL_CHARGES>
42
1 -0.36
10 0.37
11 0.27
13 0.72
14 0.28
15 0.08
16 -0.14
17 0.14
18 0.14
19 0.16
2 -0.36
20 0.16
21 -0.15
22 -0.15
23 -0.14
24 -0.15
25 -0.15
26 -0.15
27 -0.15
28 -0.15
29 0.08
3 -0.81
30 -0.15
31 -0.15
32 0.28
4 -0.84
5 -0.62
51 0.15
52 0.15
53 0.15
54 0.15
55 0.15
56 0.15
57 0.15
58 0.15
59 0.15
6 -0.62
60 0.15
61 0.15
7 0.27
8 0.27
9 0.37

> <PUBCHEM_EFFECTIVE_ROTOR_COUNT>
11.2

> <PUBCHEM_PHARMACOPHORE_FEATURES>
9
1 1 acceptor
1 2 acceptor
1 3 cation
1 6 acceptor
4 4 5 6 13 cation
6 15 16 21 22 25 26 rings
6 23 27 28 29 30 31 rings
6 3 4 7 8 9 10 rings
6 5 6 13 19 20 24 rings

> <PUBCHEM_HEAVY_ATOM_COUNT>
32

> <PUBCHEM_ATOM_DEF_STEREO_COUNT>
0

> <PUBCHEM_ATOM_UDEF_STEREO_COUNT>
0

> <PUBCHEM_BOND_DEF_STEREO_COUNT>
0

> <PUBCHEM_BOND_UDEF_STEREO_COUNT>
0

> <PUBCHEM_ISOTOPIC_ATOM_COUNT>
0

> <PUBCHEM_COMPONENT_COUNT>
1

> <PUBCHEM_CACTVS_TAUTO_COUNT>
1

> <PUBCHEM_CONFORMER_ID>
017FDE8900000001

> <PUBCHEM_MMFF94_ENERGY>
101.5812

> <PUBCHEM_FEATURE_SELFOVERLAP>
45.673

> <PUBCHEM_SHAPE_FINGERPRINT>
10670039 82 18411692223259131227
10674148 151 18187364338454853010
11135926 11 18114734958513281663
11136131 41 18042400223311302635
11315181 36 17060615603676454037
11524674 6 18343299258515949309
12422481 6 18187076209529692162
12655364 131 15625675886458121158
12838862 33 18335973195661213533
14394314 77 18340488864257890825
14747282 305 17532639141580093930
15021287 119 17530971306082004252
15183329 4 17095517427299660290
20511986 3 17989202668679011786
20721686 146 14491295442857783815
20721686 56 18261398810780423243
21033648 29 17703491291262362938
21236236 1 18411980286799751718
23559900 14 18130500928779862217
249057 3 18334574646281715724
3298306 158 18261957350171417101
3383291 50 18336833082611047163
397830 11 18200868604349322528
4073 2 18411134762743035672
4403749 210 17916294117254825854
484985 159 17676484008260699163
6086070 43 17274812589133000810
6669772 16 18271529676116005687
7226269 152 18272373070227079720
9953998 17 18411132554919167432

> <PUBCHEM_SHAPE_MULTIPOLES>
626.88
21.8
3.41
1.48
43.38
1.92
-0.28
-8.17
-2.8
-5.15
0.62
-1.33
0.39
1.15

> <PUBCHEM_SHAPE_SELFOVERLAP>
1327.249

> <PUBCHEM_SHAPE_VOLUME>
349

> <PUBCHEM_COORDINATE_TYPE>
2
5
10

$$$$