128
 OpenBabel03292022003D

 95102  0  0  1  0  0  0  0  0999 V2000
  -13.8684    2.6894  -16.3844 N   0  0  0  0  0  0  0  0  0  0  0  0
  -13.3742    2.8559  -15.1065 C   0  0  0  0  0  0  0  0  0  0  0  0
  -12.2195    2.2332  -14.8122 N   0  0  0  0  0  0  0  0  0  0  0  0
  -11.6492    2.4023  -13.5824 C   0  0  0  0  0  0  0  0  0  0  0  0
  -10.4143    1.8009  -13.2664 N   0  0  0  0  0  0  0  0  0  0  0  0
   -9.9524    0.6234  -13.9927 C   0  0  0  0  0  0  0  0  0  0  0  0
   -8.9594   -0.3295  -13.3790 C   0  0  0  0  0  0  0  0  0  0  0  0
  -10.3809   -0.7592  -13.5848 C   0  0  0  0  0  0  0  0  0  0  0  0
  -12.3349    3.2203  -12.6597 C   0  0  0  0  0  0  0  0  0  0  0  0
  -12.0766    3.5988  -11.3549 N   0  0  0  0  0  0  0  0  0  0  0  0
  -13.0936    4.3703  -11.0141 C   0  0  0  0  0  0  0  0  0  0  0  0
  -13.9945    4.5156  -12.0352 N   0  0  0  0  0  0  0  0  0  0  0  0
  -15.2653    5.2133  -12.0497 C   0  0  1  0  0  0  0  0  0  0  0  0
  -15.9630    5.3647  -10.7271 C   0  0  0  0  0  0  0  0  0  0  0  0
  -16.6803    6.4955  -10.6963 C   0  0  0  0  0  0  0  0  0  0  0  0
  -16.5246    7.2752  -11.9722 C   0  0  1  0  0  0  0  0  0  0  0  0
  -16.5488    8.7941  -11.7865 C   0  0  0  0  0  0  0  0  0  0  0  0
  -15.5407    9.2846  -10.8884 O   0  0  0  0  0  0  0  0  0  0  0  0
  -14.6111   10.1059  -11.4304 C   0  0  0  0  0  0  0  0  0  0  0  0
  -14.3776   10.2162  -12.6270 O   0  0  0  0  0  0  0  0  0  0  0  0
  -14.0162   11.0218  -10.3888 C   0  0  0  0  0  0  0  0  0  0  0  0
  -13.8637   10.3732   -9.0128 C   0  0  0  0  0  0  0  0  0  0  0  0
  -13.2647   11.3136   -7.9670 C   0  0  0  0  0  0  0  0  0  0  0  0
  -14.1413   12.5404   -7.7009 C   0  0  0  0  0  0  0  0  0  0  0  0
  -13.5463   13.4329   -6.6213 C   0  0  0  0  0  0  0  0  0  0  0  0
  -14.4080   14.6459   -6.4144 C   0  0  0  0  0  0  0  0  0  0  0  0
  -14.2877   15.6916   -7.0452 O   0  0  0  0  0  0  0  0  0  0  0  0
  -15.3584   14.4032   -5.4687 O   0  0  0  0  0  0  0  0  0  0  0  0
  -16.2604   15.4895   -5.1916 C   0  0  0  0  0  0  0  0  0  0  0  0
  -15.6151   16.5251   -4.2615 C   0  0  2  0  0  0  0  0  0  0  0  0
  -15.2338   15.9634   -2.9236 C   0  0  0  0  0  0  0  0  0  0  0  0
  -15.9170   16.5258   -1.9203 C   0  0  0  0  0  0  0  0  0  0  0  0
  -16.9120   17.5417   -2.4014 C   0  0  2  0  0  0  0  0  0  0  0  0
  -18.2894   17.1587   -2.1329 N   0  0  0  0  0  0  0  0  0  0  0  0
  -18.8059   15.8896   -2.0565 C   0  0  0  0  0  0  0  0  0  0  0  0
  -20.0729   15.8860   -1.6958 N   0  0  0  0  0  0  0  0  0  0  0  0
  -20.4058   17.2192   -1.5628 C   0  0  0  0  0  0  0  0  0  0  0  0
  -21.6039   17.8692   -1.2080 C   0  0  0  0  0  0  0  0  0  0  0  0
  -22.7484   17.1466   -0.8258 N   0  0  0  0  0  0  0  0  0  0  0  0
  -24.0836   17.7121   -0.9705 C   0  0  0  0  0  0  0  0  0  0  0  0
  -24.9288   17.4697   -2.1914 C   0  0  0  0  0  0  0  0  0  0  0  0
  -25.2903   16.8131   -0.8928 C   0  0  0  0  0  0  0  0  0  0  0  0
  -21.5978   19.2315   -1.2016 N   0  0  0  0  0  0  0  0  0  0  0  0
  -20.4687   19.8948   -1.5031 C   0  0  0  0  0  0  0  0  0  0  0  0
  -20.5295   21.2731   -1.4027 N   0  0  0  0  0  0  0  0  0  0  0  0
  -19.2758   19.3637   -1.8172 N   0  0  0  0  0  0  0  0  0  0  0  0
  -19.3155   18.0280   -1.8425 C   0  0  0  0  0  0  0  0  0  0  0  0
  -16.5746   17.6777   -3.8999 C   0  0  0  0  0  0  0  0  0  0  0  0
  -15.2281    6.6732  -12.5437 C   0  0  0  0  0  0  0  0  0  0  0  0
  -13.5270    3.7728  -13.0896 C   0  0  0  0  0  0  0  0  0  0  0  0
  -14.1076    3.6185  -14.2865 N   0  0  0  0  0  0  0  0  0  0  0  0
  -13.4750    1.8623  -16.8090 H   0  0  0  0  0  0  0  0  0  0  0  0
  -14.8713    2.8019  -16.3962 H   0  0  0  0  0  0  0  0  0  0  0  0
  -10.1655    1.9461  -12.2919 H   0  0  0  0  0  0  0  0  0  0  0  0
   -9.8388    0.8099  -15.0592 H   0  0  0  0  0  0  0  0  0  0  0  0
   -8.6299   -0.1729  -12.3592 H   0  0  0  0  0  0  0  0  0  0  0  0
   -8.2040   -0.7642  -14.0244 H   0  0  0  0  0  0  0  0  0  0  0  0
  -11.0114   -0.8632  -12.7103 H   0  0  0  0  0  0  0  0  0  0  0  0
  -10.5854   -1.4774  -14.3698 H   0  0  0  0  0  0  0  0  0  0  0  0
  -13.2246    4.8317  -10.0429 H   0  0  0  0  0  0  0  0  0  0  0  0
  -15.9329    4.6230  -12.6920 H   0  0  0  0  0  0  0  0  0  0  0  0
  -15.9636    4.6185   -9.9450 H   0  0  0  0  0  0  0  0  0  0  0  0
  -17.3400    6.7888   -9.8896 H   0  0  0  0  0  0  0  0  0  0  0  0
  -17.3629    7.0225  -12.6340 H   0  0  0  0  0  0  0  0  0  0  0  0
  -16.5153    9.2996  -12.7567 H   0  0  0  0  0  0  0  0  0  0  0  0
  -17.5049    9.0786  -11.3296 H   0  0  0  0  0  0  0  0  0  0  0  0
  -14.6839   11.8926  -10.3371 H   0  0  0  0  0  0  0  0  0  0  0  0
  -13.0424   11.3647  -10.7458 H   0  0  0  0  0  0  0  0  0  0  0  0
  -13.2246    9.4866   -9.1098 H   0  0  0  0  0  0  0  0  0  0  0  0
  -14.8354   10.0168   -8.6500 H   0  0  0  0  0  0  0  0  0  0  0  0
  -12.2642   11.6299   -8.2862 H   0  0  0  0  0  0  0  0  0  0  0  0
  -13.1396   10.7509   -7.0349 H   0  0  0  0  0  0  0  0  0  0  0  0
  -15.1480   12.2174   -7.4065 H   0  0  0  0  0  0  0  0  0  0  0  0
  -14.2579   13.1315   -8.6160 H   0  0  0  0  0  0  0  0  0  0  0  0
  -12.5450   13.7765   -6.9089 H   0  0  0  0  0  0  0  0  0  0  0  0
  -13.4335   12.8962   -5.6742 H   0  0  0  0  0  0  0  0  0  0  0  0
  -17.1519   15.0494   -4.7285 H   0  0  0  0  0  0  0  0  0  0  0  0
  -16.5903   15.9527   -6.1293 H   0  0  0  0  0  0  0  0  0  0  0  0
  -14.7117   16.9306   -4.7345 H   0  0  0  0  0  0  0  0  0  0  0  0
  -14.4818   15.1941   -2.7975 H   0  0  0  0  0  0  0  0  0  0  0  0
  -15.7883   16.2718   -0.8771 H   0  0  0  0  0  0  0  0  0  0  0  0
  -16.7306   18.4947   -1.8885 H   0  0  0  0  0  0  0  0  0  0  0  0
  -18.2144   15.0050   -2.2566 H   0  0  0  0  0  0  0  0  0  0  0  0
  -22.5961   16.1421   -0.8719 H   0  0  0  0  0  0  0  0  0  0  0  0
  -24.1784   18.6902   -0.5022 H   0  0  0  0  0  0  0  0  0  0  0  0
  -24.5391   16.8433   -2.9839 H   0  0  0  0  0  0  0  0  0  0  0  0
  -25.5620   18.2786   -2.5383 H   0  0  0  0  0  0  0  0  0  0  0  0
  -25.1410   15.7429   -0.8161 H   0  0  0  0  0  0  0  0  0  0  0  0
  -26.1635   17.1779   -0.3652 H   0  0  0  0  0  0  0  0  0  0  0  0
  -21.2994   21.5185   -0.7943 H   0  0  0  0  0  0  0  0  0  0  0  0
  -19.6194   21.6367   -1.1585 H   0  0  0  0  0  0  0  0  0  0  0  0
  -16.0436   18.6272   -4.0560 H   0  0  0  0  0  0  0  0  0  0  0  0
  -17.4617   17.7093   -4.5421 H   0  0  0  0  0  0  0  0  0  0  0  0
  -14.3354    7.1967  -12.1776 H   0  0  0  0  0  0  0  0  0  0  0  0
  -15.2109    6.7265  -13.6386 H   0  0  0  0  0  0  0  0  0  0  0  0
  1  2  1  0  0  0  0
  1 52  1  0  0  0  0
  1 53  1  0  0  0  0
  2  3  1  0  0  0  0
  2 51  2  0  0  0  0
  3  4  2  0  0  0  0
  4  5  1  0  0  0  0
  4  9  1  0  0  0  0
  5  6  1  0  0  0  0
  5 54  1  0  0  0  0
  6  7  1  0  0  0  0
  6  8  1  0  0  0  0
  6 55  1  0  0  0  0
  7  8  1  0  0  0  0
  7 56  1  0  0  0  0
  7 57  1  0  0  0  0
  8 58  1  0  0  0  0
  8 59  1  0  0  0  0
  9 10  1  0  0  0  0
  9 50  2  0  0  0  0
 10 11  2  0  0  0  0
 11 12  1  0  0  0  0
 11 60  1  0  0  0  0
 12 13  1  0  0  0  0
 12 50  1  0  0  0  0
 13 14  1  0  0  0  0
 13 49  1  0  0  0  0
 13 61  1  6  0  0  0
 14 15  2  0  0  0  0
 14 62  1  0  0  0  0
 15 16  1  0  0  0  0
 15 63  1  0  0  0  0
 16 49  1  0  0  0  0
 16 17  1  0  0  0  0
 16 64  1  6  0  0  0
 17 18  1  0  0  0  0
 17 65  1  0  0  0  0
 17 66  1  0  0  0  0
 18 19  1  0  0  0  0
 19 20  2  0  0  0  0
 19 21  1  0  0  0  0
 21 22  1  0  0  0  0
 21 67  1  0  0  0  0
 21 68  1  0  0  0  0
 22 23  1  0  0  0  0
 22 69  1  0  0  0  0
 22 70  1  0  0  0  0
 23 24  1  0  0  0  0
 23 71  1  0  0  0  0
 23 72  1  0  0  0  0
 24 25  1  0  0  0  0
 24 73  1  0  0  0  0
 24 74  1  0  0  0  0
 25 26  1  0  0  0  0
 25 75  1  0  0  0  0
 25 76  1  0  0  0  0
 26 27  2  0  0  0  0
 26 28  1  0  0  0  0
 28 29  1  0  0  0  0
 29 77  1  0  0  0  0
 29 78  1  0  0  0  0
 30 31  1  0  0  0  0
 30 48  1  0  0  0  0
 30 29  1  0  0  0  0
 30 79  1  6  0  0  0
 31 32  2  0  0  0  0
 31 80  1  0  0  0  0
 32 33  1  0  0  0  0
 32 81  1  0  0  0  0
 33 34  1  0  0  0  0
 33 48  1  0  0  0  0
 33 82  1  1  0  0  0
 34 35  1  0  0  0  0
 34 47  1  0  0  0  0
 35 36  2  0  0  0  0
 35 83  1  0  0  0  0
 36 37  1  0  0  0  0
 37 38  1  0  0  0  0
 37 47  2  0  0  0  0
 38 39  1  0  0  0  0
 38 43  2  0  0  0  0
 39 40  1  0  0  0  0
 39 84  1  0  0  0  0
 40 41  1  0  0  0  0
 40 42  1  0  0  0  0
 40 85  1  0  0  0  0
 41 42  1  0  0  0  0
 41 86  1  0  0  0  0
 41 87  1  0  0  0  0
 42 88  1  0  0  0  0
 42 89  1  0  0  0  0
 43 44  1  0  0  0  0
 44 45  1  0  0  0  0
 44 46  2  0  0  0  0
 45 90  1  0  0  0  0
 45 91  1  0  0  0  0
 46 47  1  0  0  0  0
 48 92  1  0  0  0  0
 48 93  1  0  0  0  0
 49 94  1  0  0  0  0
 49 95  1  0  0  0  0
 50 51  1  0  0  0  0
M  END
>  <Energy>
-94.2486

$$$$