4679
  -OEChem-03242010103D

 41 43  0     1  0  0  0  0  0999 V2000
   -1.0359    0.7797   -0.7482 S   0  0  1  0  0  0  0  0  0  0  0  0
    8.1347    0.7798    0.5489 F   0  0  0  0  0  0  0  0  0  0  0  0
    7.0933    1.1203   -1.3296 F   0  0  0  0  0  0  0  0  0  0  0  0
   -3.8698   -1.5346   -0.5029 O   0  0  0  0  0  0  0  0  0  0  0  0
    6.3821   -0.5255    0.0526 O   0  0  0  0  0  0  0  0  0  0  0  0
   -1.0568    2.2926   -0.6538 O   0  0  0  0  0  0  0  0  0  0  0  0
   -6.5509   -0.7993   -0.5289 O   0  0  0  0  0  0  0  0  0  0  0  0
    1.7578    0.8453   -0.7953 N   0  0  0  0  0  0  0  0  0  0  0  0
    0.8855   -0.8884    0.2883 N   0  0  0  0  0  0  0  0  0  0  0  0
   -3.7116    1.6651    1.2453 N   0  0  0  0  0  0  0  0  0  0  0  0
    2.8296    0.1189   -0.3436 C   0  0  0  0  0  0  0  0  0  0  0  0
    0.6196    0.2036   -0.3930 C   0  0  0  0  0  0  0  0  0  0  0  0
    2.2591   -0.9579    0.3296 C   0  0  0  0  0  0  0  0  0  0  0  0
   -1.9184    0.1430    0.7059 C   0  0  0  0  0  0  0  0  0  0  0  0
   -3.3776    0.4935    0.6667 C   0  0  0  0  0  0  0  0  0  0  0  0
    4.2074    0.3056   -0.4624 C   0  0  0  0  0  0  0  0  0  0  0  0
    3.0976   -1.9148    0.9258 C   0  0  0  0  0  0  0  0  0  0  0  0
   -4.2740   -0.3671    0.0625 C   0  0  0  0  0  0  0  0  0  0  0  0
    5.0269   -0.6565    0.1368 C   0  0  0  0  0  0  0  0  0  0  0  0
    4.4840   -1.7477    0.8190 C   0  0  0  0  0  0  0  0  0  0  0  0
   -5.6146    0.0019    0.0507 C   0  0  0  0  0  0  0  0  0  0  0  0
   -6.0048    1.2015    0.6356 C   0  0  0  0  0  0  0  0  0  0  0  0
   -5.0235    1.9903    1.2144 C   0  0  0  0  0  0  0  0  0  0  0  0
   -4.4094   -2.7410    0.0021 C   0  0  0  0  0  0  0  0  0  0  0  0
    6.9050    0.7936   -0.0274 C   0  0  0  0  0  0  0  0  0  0  0  0
   -6.8354   -0.6020   -1.8992 C   0  0  0  0  0  0  0  0  0  0  0  0
   -1.4581    0.5827    1.5985 H   0  0  0  0  0  0  0  0  0  0  0  0
   -1.7742   -0.9405    0.7697 H   0  0  0  0  0  0  0  0  0  0  0  0
    1.8035    1.7025   -1.3300 H   0  0  0  0  0  0  0  0  0  0  0  0
    4.5901    1.1513   -1.0215 H   0  0  0  0  0  0  0  0  0  0  0  0
    2.6855   -2.7662    1.4580 H   0  0  0  0  0  0  0  0  0  0  0  0
    5.1417   -2.4828    1.2770 H   0  0  0  0  0  0  0  0  0  0  0  0
   -7.0428    1.5154    0.6422 H   0  0  0  0  0  0  0  0  0  0  0  0
   -5.2759    2.9354    1.6837 H   0  0  0  0  0  0  0  0  0  0  0  0
   -5.2744   -3.0477   -0.5926 H   0  0  0  0  0  0  0  0  0  0  0  0
   -4.6881   -2.6601    1.0588 H   0  0  0  0  0  0  0  0  0  0  0  0
   -3.6464   -3.5199   -0.0879 H   0  0  0  0  0  0  0  0  0  0  0  0
    6.3061    1.5559    0.4833 H   0  0  0  0  0  0  0  0  0  0  0  0
   -7.2347    0.4028   -2.0706 H   0  0  0  0  0  0  0  0  0  0  0  0
   -7.5901   -1.3316   -2.2057 H   0  0  0  0  0  0  0  0  0  0  0  0
   -5.9391   -0.7542   -2.5091 H   0  0  0  0  0  0  0  0  0  0  0  0
  1  6  2  0  0  0  0
  1 12  1  0  0  0  0
  1 14  1  0  0  0  0
  2 25  1  0  0  0  0
  3 25  1  0  0  0  0
  4 18  1  0  0  0  0
  4 24  1  0  0  0  0
  5 19  1  0  0  0  0
  5 25  1  0  0  0  0
  7 21  1  0  0  0  0
  7 26  1  0  0  0  0
  8 11  1  0  0  0  0
  8 12  1  0  0  0  0
  8 29  1  0  0  0  0
  9 12  2  0  0  0  0
  9 13  1  0  0  0  0
 10 15  2  0  0  0  0
 10 23  1  0  0  0  0
 11 13  2  0  0  0  0
 11 16  1  0  0  0  0
 13 17  1  0  0  0  0
 14 15  1  0  0  0  0
 14 27  1  0  0  0  0
 14 28  1  0  0  0  0
 15 18  1  0  0  0  0
 16 19  2  0  0  0  0
 16 30  1  0  0  0  0
 17 20  2  0  0  0  0
 17 31  1  0  0  0  0
 18 21  2  0  0  0  0
 19 20  1  0  0  0  0
 20 32  1  0  0  0  0
 21 22  1  0  0  0  0
 22 23  2  0  0  0  0
 22 33  1  0  0  0  0
 23 34  1  0  0  0  0
 24 35  1  0  0  0  0
 24 36  1  0  0  0  0
 24 37  1  0  0  0  0
 25 38  1  0  0  0  0
 26 39  1  0  0  0  0
 26 40  1  0  0  0  0
 26 41  1  0  0  0  0
M  END
> <PUBCHEM_COMPOUND_CID>
4679

> <PUBCHEM_CONFORMER_RMSD>
0.8

> <PUBCHEM_CONFORMER_DIVERSEORDER>
1
150
76
83
146
64
17
171
170
117
134
80
102
92
107
99
106
129
81
69
168
118
50
66
151
164
63
154
44
136
142
105
9
109
27
65
36
165
58
41
100
115
84
52
93
91
139
49
126
72
163
116
57
75
143
108
174
54
175
131
114
62
38
162
51
149
2
23
103
176
29
8
48
30
125
160
137
120
90
132
28
87
124
16
104
4
172
167
7
159
70
12
94
127
10
85
98
73
157
97
60
19
138
71
15
96
111
169
18
95
158
40
152
13
130
55
161
156
34
59
24
56
135
173
42
45
67
6
32
144
113
78
128
89
5
155
86
101
47
61
141
147
122
53
37
39
68
79
153
140
148
43
77
14
145
123
31
121
110
166
133
3
82
20
119
88
33
35
22
25
26
21
112
74
11
46

> <PUBCHEM_MMFF94_PARTIAL_CHARGES>
32
1 0.3
10 -0.62
11 -0.15
12 0.2
13 0.23
14 0.34
15 0.17
16 -0.15
17 -0.15
18 0.08
19 0.08
2 -0.34
20 -0.15
21 0.08
22 -0.15
23 0.16
24 0.28
25 0.96
26 0.28
29 0.27
3 -0.34
30 0.15
31 0.15
32 0.15
33 0.15
34 0.15
4 -0.36
5 -0.36
6 -0.5
7 -0.36
8 0.03
9 -0.57

> <PUBCHEM_EFFECTIVE_ROTOR_COUNT>
7

> <PUBCHEM_PHARMACOPHORE_FEATURES>
10
1 10 acceptor
1 4 acceptor
1 5 acceptor
1 6 acceptor
1 7 acceptor
1 8 donor
3 8 9 12 cation
5 8 9 11 12 13 rings
6 10 15 18 21 22 23 rings
6 11 13 16 17 19 20 rings

> <PUBCHEM_HEAVY_ATOM_COUNT>
26

> <PUBCHEM_ATOM_DEF_STEREO_COUNT>
0

> <PUBCHEM_ATOM_UDEF_STEREO_COUNT>
1

> <PUBCHEM_BOND_DEF_STEREO_COUNT>
0

> <PUBCHEM_BOND_UDEF_STEREO_COUNT>
0

> <PUBCHEM_ISOTOPIC_ATOM_COUNT>
0

> <PUBCHEM_COMPONENT_COUNT>
1

> <PUBCHEM_CACTVS_TAUTO_COUNT>
2

> <PUBCHEM_CONFORMER_ID>
0000124700000001

> <PUBCHEM_MMFF94_ENERGY>
84.9851

> <PUBCHEM_FEATURE_SELFOVERLAP>
50.859

> <PUBCHEM_SHAPE_FINGERPRINT>
10595046 47 18341050722671752083
10906281 52 17968957356818371082
11315181 36 18410293631968287321
12107183 9 17547011823526410803
12166972 35 9295281742775171278
12236239 1 18413108329404690562
12516196 113 18113339699695468837
12596602 18 18202003201158153544
13631057 29 18340767156452689107
14251764 18 18410575084663078916
14394314 77 18337394842837538849
1454969 45 18260551139012751372
14849402 71 18338521958167631864
15131766 46 14564531897791911750
15183329 4 18260824895611704699
15419008 47 15841548553009562883
15461852 350 17346590873258720405
15728490 51 18410855499279025598
1577012 14 18341050727188232827
17093844 174 15719111366747749597
17857418 61 18408602543971230203
18681886 176 17846211185079408640
19377110 9 18187357702223978400
19489759 90 17846497007428055961
20511986 3 18335409145900414579
21033648 29 15864067702435072141
21065198 48 18341049622970278547
21150785 3 18272086110482069446
21315763 178 18187366497594320298
22224240 67 18187363247184876514
23081809 10 18341329998445917514
23522609 53 18194147181904369768
23559900 14 18269828874015449105
24771293 8 18335143120486161364
300161 21 18335139765245706259
3009799 131 16515682238664662548
328311 84 13110963136850050988
34797466 226 17274829077116758824
4073 2 18260838115584755162
4325135 7 18333731321437399390
4340502 62 15574435419315135930
504579 68 18413107281575069701
5758199 1 18334580153246602626
59755656 520 12463566279621662741
67856867 119 18338801220623852465

> <PUBCHEM_SHAPE_MULTIPOLES>
485.95
21.21
2.01
1.14
15.07
0.51
0.18
-1.46
1.8
-1.59
-0.31
-1.05
-0.14
-2.29

> <PUBCHEM_SHAPE_SELFOVERLAP>
1035.269

> <PUBCHEM_SHAPE_VOLUME>
274.3

> <PUBCHEM_COORDINATE_TYPE>
2
5
10

$$$$