127042918
  -OEChem-03242010103D

 57 60  0     0  0  0  0  0  0999 V2000
    2.8415    0.3193    0.3231 O   0  0  0  0  0  0  0  0  0  0  0  0
    5.3707   -2.6948   -0.7160 O   0  0  0  0  0  0  0  0  0  0  0  0
    7.3491   -0.9457   -0.9321 O   0  0  0  0  0  0  0  0  0  0  0  0
    6.2673    3.5880   -0.0201 O   0  0  0  0  0  0  0  0  0  0  0  0
   -9.5393    2.0556   -1.0079 O   0  5  0  0  0  0  0  0  0  0  0  0
  -10.0994   -0.0669   -0.9890 O   0  0  0  0  0  0  0  0  0  0  0  0
   -1.7686   -1.1400    0.5272 N   0  0  0  0  0  0  0  0  0  0  0  0
    1.0814   -1.1770    0.5264 N   0  0  0  0  0  0  0  0  0  0  0  0
   -9.2663    0.8502   -0.7912 N   0  3  0  0  0  0  0  0  0  0  0  0
   -1.0044    0.0615    0.8922 C   0  0  0  0  0  0  0  0  0  0  0  0
   -1.0303   -1.9325   -0.4671 C   0  0  0  0  0  0  0  0  0  0  0  0
    0.3638   -0.3145    1.4645 C   0  0  0  0  0  0  0  0  0  0  0  0
    0.3372   -2.3523    0.0754 C   0  0  0  0  0  0  0  0  0  0  0  0
   -3.0883   -0.7735    0.0146 C   0  0  0  0  0  0  0  0  0  0  0  0
   -4.0653   -0.5049    1.1595 C   0  0  0  0  0  0  0  0  0  0  0  0
    2.4027   -0.9971    0.2374 C   0  0  0  0  0  0  0  0  0  0  0  0
   -5.4368   -0.1472    0.6445 C   0  0  0  0  0  0  0  0  0  0  0  0
    3.2103   -2.0154   -0.1026 C   0  0  0  0  0  0  0  0  0  0  0  0
    4.1558    0.6023    0.0513 C   0  0  0  0  0  0  0  0  0  0  0  0
    5.0815   -0.3738   -0.3101 C   0  0  0  0  0  0  0  0  0  0  0  0
    4.6333   -1.7696   -0.4060 C   0  0  0  0  0  0  0  0  0  0  0  0
   -5.7631    1.1860    0.3957 C   0  0  0  0  0  0  0  0  0  0  0  0
   -6.3792   -1.1500    0.4172 C   0  0  0  0  0  0  0  0  0  0  0  0
    6.4084   -0.0274   -0.5756 C   0  0  0  0  0  0  0  0  0  0  0  0
    4.5531    1.9361    0.1495 C   0  0  0  0  0  0  0  0  0  0  0  0
   -7.0318    1.5164   -0.0801 C   0  0  0  0  0  0  0  0  0  0  0  0
   -7.6481   -0.8197   -0.0586 C   0  0  0  0  0  0  0  0  0  0  0  0
    5.8773    2.2872   -0.1149 C   0  0  0  0  0  0  0  0  0  0  0  0
    6.8030    1.3073   -0.4764 C   0  0  0  0  0  0  0  0  0  0  0  0
   -7.9744    0.5135   -0.3073 C   0  0  0  0  0  0  0  0  0  0  0  0
    8.0878   -1.5597    0.1225 C   0  0  0  0  0  0  0  0  0  0  0  0
    5.2711    4.5385    0.3540 C   0  0  0  0  0  0  0  0  0  0  0  0
   -0.9008   -1.3607   -1.3960 H   0  0  0  0  0  0  0  0  0  0  0  0
   -0.8653    0.7131    0.0188 H   0  0  0  0  0  0  0  0  0  0  0  0
   -1.5906   -2.8421   -0.7152 H   0  0  0  0  0  0  0  0  0  0  0  0
   -1.5339    0.6448    1.6531 H   0  0  0  0  0  0  0  0  0  0  0  0
    0.9117    0.6064    1.6944 H   0  0  0  0  0  0  0  0  0  0  0  0
    0.2397   -0.8493    2.4150 H   0  0  0  0  0  0  0  0  0  0  0  0
    0.2201   -3.0527    0.9118 H   0  0  0  0  0  0  0  0  0  0  0  0
    0.8428   -2.8894   -0.7348 H   0  0  0  0  0  0  0  0  0  0  0  0
   -3.0332    0.0805   -0.6740 H   0  0  0  0  0  0  0  0  0  0  0  0
   -3.5014   -1.6051   -0.5734 H   0  0  0  0  0  0  0  0  0  0  0  0
   -3.7124    0.3085    1.8047 H   0  0  0  0  0  0  0  0  0  0  0  0
   -4.1402   -1.3872    1.8092 H   0  0  0  0  0  0  0  0  0  0  0  0
    2.8905   -3.0498   -0.1475 H   0  0  0  0  0  0  0  0  0  0  0  0
   -5.0361    1.9755    0.5672 H   0  0  0  0  0  0  0  0  0  0  0  0
   -6.1357   -2.1923    0.6056 H   0  0  0  0  0  0  0  0  0  0  0  0
    3.7898    2.6527    0.4347 H   0  0  0  0  0  0  0  0  0  0  0  0
   -7.2506    2.5654   -0.2630 H   0  0  0  0  0  0  0  0  0  0  0  0
   -8.3567   -1.6271   -0.2244 H   0  0  0  0  0  0  0  0  0  0  0  0
    7.8334    1.5877   -0.6819 H   0  0  0  0  0  0  0  0  0  0  0  0
    8.6458   -2.4022   -0.2952 H   0  0  0  0  0  0  0  0  0  0  0  0
    7.4267   -1.9329    0.9113 H   0  0  0  0  0  0  0  0  0  0  0  0
    8.7996   -0.8434    0.5445 H   0  0  0  0  0  0  0  0  0  0  0  0
    5.7553    5.5202    0.3803 H   0  0  0  0  0  0  0  0  0  0  0  0
    4.8878    4.3446    1.3616 H   0  0  0  0  0  0  0  0  0  0  0  0
    4.4707    4.5974   -0.3913 H   0  0  0  0  0  0  0  0  0  0  0  0
  1 16  1  0  0  0  0
  1 19  1  0  0  0  0
  2 21  2  0  0  0  0
  3 24  1  0  0  0  0
  3 31  1  0  0  0  0
  4 28  1  0  0  0  0
  4 32  1  0  0  0  0
  5  9  1  0  0  0  0
  6  9  2  0  0  0  0
  7 10  1  0  0  0  0
  7 11  1  0  0  0  0
  7 14  1  0  0  0  0
  8 12  1  0  0  0  0
  8 13  1  0  0  0  0
  8 16  1  0  0  0  0
  9 30  1  0  0  0  0
 10 12  1  0  0  0  0
 10 34  1  0  0  0  0
 10 36  1  0  0  0  0
 11 13  1  0  0  0  0
 11 33  1  0  0  0  0
 11 35  1  0  0  0  0
 12 37  1  0  0  0  0
 12 38  1  0  0  0  0
 13 39  1  0  0  0  0
 13 40  1  0  0  0  0
 14 15  1  0  0  0  0
 14 41  1  0  0  0  0
 14 42  1  0  0  0  0
 15 17  1  0  0  0  0
 15 43  1  0  0  0  0
 15 44  1  0  0  0  0
 16 18  2  0  0  0  0
 17 22  2  0  0  0  0
 17 23  1  0  0  0  0
 18 21  1  0  0  0  0
 18 45  1  0  0  0  0
 19 20  2  0  0  0  0
 19 25  1  0  0  0  0
 20 21  1  0  0  0  0
 20 24  1  0  0  0  0
 22 26  1  0  0  0  0
 22 46  1  0  0  0  0
 23 27  2  0  0  0  0
 23 47  1  0  0  0  0
 24 29  2  0  0  0  0
 25 28  2  0  0  0  0
 25 48  1  0  0  0  0
 26 30  2  0  0  0  0
 26 49  1  0  0  0  0
 27 30  1  0  0  0  0
 27 50  1  0  0  0  0
 28 29  1  0  0  0  0
 29 51  1  0  0  0  0
 31 52  1  0  0  0  0
 31 53  1  0  0  0  0
 31 54  1  0  0  0  0
 32 55  1  0  0  0  0
 32 56  1  0  0  0  0
 32 57  1  0  0  0  0
M  CHG  2   5  -1   9   1
M  END
> <PUBCHEM_COMPOUND_CID>
127042918

> <PUBCHEM_CONFORMER_RMSD>
1

> <PUBCHEM_CONFORMER_DIVERSEORDER>
1
9
12
17
26
14
32
30
15
20
21
36
33
13
11
19
18
24
34
23
31
22
25
2
16
29
5
6
37
28
4
7
8
35
3
10
27

> <PUBCHEM_MMFF94_PARTIAL_CHARGES>
39
1 -0.16
10 0.27
11 0.27
12 0.37
13 0.37
14 0.27
15 0.14
16 0.18
17 -0.14
18 -0.14
19 0.08
2 -0.57
20 0.09
21 0.47
22 -0.15
23 -0.15
24 0.08
25 -0.15
26 -0.15
27 -0.15
28 0.08
29 -0.15
3 -0.36
30 0.13
31 0.28
32 0.28
4 -0.36
45 0.15
46 0.15
47 0.15
48 0.15
49 0.15
5 -0.52
50 0.15
51 0.15
6 -0.52
7 -0.81
8 -0.84
9 0.91

> <PUBCHEM_EFFECTIVE_ROTOR_COUNT>
8.2

> <PUBCHEM_PHARMACOPHORE_FEATURES>
13
1 1 acceptor
1 2 acceptor
1 3 acceptor
1 4 acceptor
1 5 acceptor
1 5 anion
1 6 acceptor
1 7 cation
1 8 cation
6 1 16 18 19 20 21 rings
6 17 22 23 26 27 30 rings
6 19 20 24 25 28 29 rings
6 7 8 10 11 12 13 rings

> <PUBCHEM_HEAVY_ATOM_COUNT>
32

> <PUBCHEM_ATOM_DEF_STEREO_COUNT>
0

> <PUBCHEM_ATOM_UDEF_STEREO_COUNT>
0

> <PUBCHEM_BOND_DEF_STEREO_COUNT>
0

> <PUBCHEM_BOND_UDEF_STEREO_COUNT>
0

> <PUBCHEM_ISOTOPIC_ATOM_COUNT>
0

> <PUBCHEM_COMPONENT_COUNT>
1

> <PUBCHEM_CACTVS_TAUTO_COUNT>
2

> <PUBCHEM_CONFORMER_ID>
0792856600000001

> <PUBCHEM_MMFF94_ENERGY>
112.5854

> <PUBCHEM_FEATURE_SELFOVERLAP>
66.096

> <PUBCHEM_SHAPE_FINGERPRINT>
10162869 55 18202561770308554282
10280341 67 17912359025343730160
10411042 1 18123475974257637094
10625338 86 16298381366548202631
10673678 19 18342183305648037678
10816530 90 18412255168812181848
10835480 77 18410296946886546208
11135609 127 18200870790519279048
11211813 74 18407757032773497245
11315181 36 18413110542700082059
11386260 185 18272944808522436716
11409948 35 16443900550028551554
11409948 41 17274277041698734790
11607047 191 17058342995652887474
11991303 11 17418086655272353271
12013929 2 18040716918485523098
12522641 24 17676759891200436778
12664476 115 18040151808347668484
13668630 136 12031791357907678017
13685833 64 10087644788293013986
14117953 113 18131361787309520382
14142895 15 18412824720805277543
14251757 52 18334009501915867713
14429380 56 18412544323073898220
14556957 393 17346333586857631785
14747282 540 18116434942011420428
14933364 13 18409169905098872075
150020 25 18334297561351710371
15183329 4 18202286883605733451
15247644 1 15554447379436490455
15276724 80 18336826382345786861
15392192 104 14707215417699219401
15461852 350 18130784578212414735
15840311 113 18408042926617265941
16120349 18 18411135835772774750
17134984 74 12463580560662150772
1754911 235 18410852149700134405
17686467 74 17894911863585626597
18335252 114 18413951689351926520
19053607 189 17908136926499634792
20157964 124 18341619226534916458
2026 5 12031523068175534061
20554085 129 16588022420218327745
20721686 124 18272092661015293134
20771845 171 17274833436666801366
21033648 29 17604147142663964242
21150785 3 17846779603317559571
21344244 181 11455893572105218757
21362857 166 16916516856756033164
21792934 111 18410847760164553592
21792965 169 17988381316075271516
23522609 53 17345220885537731529
23569943 247 11094239982804349908
23576562 1 18200306766797309269
255183 451 17771076999643947502
335352 9 18341342133021089838
3383291 50 12967121732066086893
3633792 109 18412268315479844355
4066623 53 16845574219169876728
4073 2 18187652465197234370
44880568 143 18058458604257876509
4625314 4 18411139143214506543
4760202 170 18411129239173214733
5047190 47 18200591531007864753
5104073 3 11819260179463946854
5758199 1 16877943828717306683
57634706 306 18335135440282451323
58083652 198 18412832386562389201
9937071 3 11312053275875899077

> <PUBCHEM_SHAPE_MULTIPOLES>
608.39
31.68
3.27
0.92
55.48
3.33
-0.09
12.95
9.29
-7.51
0.13
0.65
-0.03
1.49

> <PUBCHEM_SHAPE_SELFOVERLAP>
1313.178

> <PUBCHEM_SHAPE_VOLUME>
335.7

> <PUBCHEM_COORDINATE_TYPE>
2
5
10

$$$$