70295239
  -OEChem-03242010103D

 57 58  0     0  0  0  0  0  0999 V2000
    4.2770   -0.4595   -0.0132 O   0  0  0  0  0  0  0  0  0  0  0  0
    0.3632   -1.2948   -1.8063 O   0  0  0  0  0  0  0  0  0  0  0  0
    2.1648   -1.3703    0.3067 N   0  0  0  0  0  0  0  0  0  0  0  0
    0.8029   -1.1830    0.4681 N   0  0  0  0  0  0  0  0  0  0  0  0
    2.5568   -2.7676    0.3378 C   0  0  0  0  0  0  0  0  0  0  0  0
    3.2293   -3.1349   -0.9901 C   0  0  0  0  0  0  0  0  0  0  0  0
    3.5413   -2.9920    1.4913 C   0  0  0  0  0  0  0  0  0  0  0  0
    1.3096   -3.6333    0.5444 C   0  0  0  0  0  0  0  0  0  0  0  0
    3.0631   -0.3292    0.1328 C   0  0  0  0  0  0  0  0  0  0  0  0
    2.5267    1.0446    0.1066 C   0  0  0  0  0  0  0  0  0  0  0  0
   -0.0176   -1.1599   -0.6462 C   0  0  0  0  0  0  0  0  0  0  0  0
   -1.4643   -0.9654   -0.3732 C   0  0  0  0  0  0  0  0  0  0  0  0
    1.8372    1.5455    1.2108 C   0  0  0  0  0  0  0  0  0  0  0  0
    2.7096    1.8432   -1.0222 C   0  0  0  0  0  0  0  0  0  0  0  0
    1.3307    2.8449    1.1862 C   0  0  0  0  0  0  0  0  0  0  0  0
    2.2031    3.1427   -1.0470 C   0  0  0  0  0  0  0  0  0  0  0  0
   -4.1817   -0.5982    0.1398 C   0  0  0  0  0  0  0  0  0  0  0  0
   -5.6348   -0.4021    0.4136 C   0  0  0  0  0  0  0  0  0  0  0  0
    1.5136    3.6434    0.0572 C   0  0  0  0  0  0  0  0  0  0  0  0
   -1.8718   -0.2833    0.7733 C   0  0  0  0  0  0  0  0  0  0  0  0
   -2.4158   -1.4641   -1.2631 C   0  0  0  0  0  0  0  0  0  0  0  0
   -3.2304   -0.0996    1.0298 C   0  0  0  0  0  0  0  0  0  0  0  0
   -3.7744   -1.2805   -1.0067 C   0  0  0  0  0  0  0  0  0  0  0  0
   -6.1707    0.8997   -0.1982 C   0  0  0  0  0  0  0  0  0  0  0  0
    0.5949    3.3815    2.3674 C   0  0  0  0  0  0  0  0  0  0  0  0
    2.3971    3.9959   -2.2549 C   0  0  0  0  0  0  0  0  0  0  0  0
   -7.6595    1.0765    0.0553 C   0  0  0  0  0  0  0  0  0  0  0  0
    2.5821   -2.9041   -1.8435 H   0  0  0  0  0  0  0  0  0  0  0  0
    4.1769   -2.6118   -1.1490 H   0  0  0  0  0  0  0  0  0  0  0  0
    4.4911   -2.4672    1.3522 H   0  0  0  0  0  0  0  0  0  0  0  0
    3.1161   -2.6521    2.4431 H   0  0  0  0  0  0  0  0  0  0  0  0
    3.7813   -4.0565    1.5976 H   0  0  0  0  0  0  0  0  0  0  0  0
    0.6146   -3.6130   -0.3013 H   0  0  0  0  0  0  0  0  0  0  0  0
    0.7697   -3.4047    1.4714 H   0  0  0  0  0  0  0  0  0  0  0  0
    1.6097   -4.6862    0.6357 H   0  0  0  0  0  0  0  0  0  0  0  0
    3.4514   -4.2080   -1.0274 H   0  0  0  0  0  0  0  0  0  0  0  0
    0.4821   -1.1091    1.4275 H   0  0  0  0  0  0  0  0  0  0  0  0
    1.7082    0.9352    2.1018 H   0  0  0  0  0  0  0  0  0  0  0  0
    3.2431    1.4507   -1.8850 H   0  0  0  0  0  0  0  0  0  0  0  0
   -6.2023   -1.2569    0.0231 H   0  0  0  0  0  0  0  0  0  0  0  0
   -5.8117   -0.4031    1.4970 H   0  0  0  0  0  0  0  0  0  0  0  0
    1.1187    4.6565    0.0376 H   0  0  0  0  0  0  0  0  0  0  0  0
   -1.1643    0.1454    1.4766 H   0  0  0  0  0  0  0  0  0  0  0  0
   -2.1180   -2.0018   -2.1594 H   0  0  0  0  0  0  0  0  0  0  0  0
   -5.9901    0.9077   -1.2802 H   0  0  0  0  0  0  0  0  0  0  0  0
   -5.6309    1.7589    0.2184 H   0  0  0  0  0  0  0  0  0  0  0  0
   -3.5353    0.4407    1.9222 H   0  0  0  0  0  0  0  0  0  0  0  0
   -4.5059   -1.6729   -1.7082 H   0  0  0  0  0  0  0  0  0  0  0  0
    1.2982    3.8270    3.0778 H   0  0  0  0  0  0  0  0  0  0  0  0
   -0.1324    4.1443    2.0693 H   0  0  0  0  0  0  0  0  0  0  0  0
    0.0358    2.5882    2.8753 H   0  0  0  0  0  0  0  0  0  0  0  0
    1.5621    3.8591   -2.9491 H   0  0  0  0  0  0  0  0  0  0  0  0
    2.4591    5.0555   -1.9846 H   0  0  0  0  0  0  0  0  0  0  0  0
    3.3288    3.7428   -2.7721 H   0  0  0  0  0  0  0  0  0  0  0  0
   -8.0120    2.0118   -0.3906 H   0  0  0  0  0  0  0  0  0  0  0  0
   -7.8724    1.1095    1.1285 H   0  0  0  0  0  0  0  0  0  0  0  0
   -8.2319    0.2533   -0.3839 H   0  0  0  0  0  0  0  0  0  0  0  0
  1  9  2  0  0  0  0
  2 11  2  0  0  0  0
  3  4  1  0  0  0  0
  3  5  1  0  0  0  0
  3  9  1  0  0  0  0
  4 11  1  0  0  0  0
  4 37  1  0  0  0  0
  5  6  1  0  0  0  0
  5  7  1  0  0  0  0
  5  8  1  0  0  0  0
  6 28  1  0  0  0  0
  6 29  1  0  0  0  0
  6 36  1  0  0  0  0
  7 30  1  0  0  0  0
  7 31  1  0  0  0  0
  7 32  1  0  0  0  0
  8 33  1  0  0  0  0
  8 34  1  0  0  0  0
  8 35  1  0  0  0  0
  9 10  1  0  0  0  0
 10 13  2  0  0  0  0
 10 14  1  0  0  0  0
 11 12  1  0  0  0  0
 12 20  2  0  0  0  0
 12 21  1  0  0  0  0
 13 15  1  0  0  0  0
 13 38  1  0  0  0  0
 14 16  2  0  0  0  0
 14 39  1  0  0  0  0
 15 19  2  0  0  0  0
 15 25  1  0  0  0  0
 16 19  1  0  0  0  0
 16 26  1  0  0  0  0
 17 18  1  0  0  0  0
 17 22  2  0  0  0  0
 17 23  1  0  0  0  0
 18 24  1  0  0  0  0
 18 40  1  0  0  0  0
 18 41  1  0  0  0  0
 19 42  1  0  0  0  0
 20 22  1  0  0  0  0
 20 43  1  0  0  0  0
 21 23  2  0  0  0  0
 21 44  1  0  0  0  0
 22 47  1  0  0  0  0
 23 48  1  0  0  0  0
 24 27  1  0  0  0  0
 24 45  1  0  0  0  0
 24 46  1  0  0  0  0
 25 49  1  0  0  0  0
 25 50  1  0  0  0  0
 25 51  1  0  0  0  0
 26 52  1  0  0  0  0
 26 53  1  0  0  0  0
 26 54  1  0  0  0  0
 27 55  1  0  0  0  0
 27 56  1  0  0  0  0
 27 57  1  0  0  0  0
M  END
> <PUBCHEM_COMPOUND_CID>
70295239

> <PUBCHEM_CONFORMER_RMSD>
1

> <PUBCHEM_CONFORMER_DIVERSEORDER>
1
21
15
24
13
14
23
25
20
2
18
9
12
6
3
19
10
17
16
7
22
11
4
8
5

> <PUBCHEM_MMFF94_PARTIAL_CHARGES>
30
1 -0.57
10 0.09
11 0.54
12 0.09
13 -0.15
14 -0.15
15 -0.14
16 -0.14
17 -0.14
18 0.14
19 -0.15
2 -0.57
20 -0.15
21 -0.15
22 -0.15
23 -0.15
25 0.14
26 0.14
3 -0.36
37 0.37
38 0.15
39 0.15
4 -0.43
42 0.15
43 0.15
44 0.15
47 0.15
48 0.15
5 0.3
9 0.54

> <PUBCHEM_EFFECTIVE_ROTOR_COUNT>
8

> <PUBCHEM_PHARMACOPHORE_FEATURES>
7
1 1 acceptor
1 2 acceptor
1 27 hydrophobe
1 4 donor
4 5 6 7 8 hydrophobe
6 10 13 14 15 16 19 rings
6 12 17 20 21 22 23 rings

> <PUBCHEM_HEAVY_ATOM_COUNT>
27

> <PUBCHEM_ATOM_DEF_STEREO_COUNT>
0

> <PUBCHEM_ATOM_UDEF_STEREO_COUNT>
0

> <PUBCHEM_BOND_DEF_STEREO_COUNT>
0

> <PUBCHEM_BOND_UDEF_STEREO_COUNT>
0

> <PUBCHEM_ISOTOPIC_ATOM_COUNT>
0

> <PUBCHEM_COMPONENT_COUNT>
1

> <PUBCHEM_CACTVS_TAUTO_COUNT>
5

> <PUBCHEM_CONFORMER_ID>
04309EC700000001

> <PUBCHEM_MMFF94_ENERGY>
81.8675

> <PUBCHEM_FEATURE_SELFOVERLAP>
35.521

> <PUBCHEM_SHAPE_FINGERPRINT>
10074138 170 15233253284545864419
10162869 55 18340753924164521215
10165383 225 17398138395839315168
10483366 6 18115888428749309780
10675989 125 18200877400020878169
10763959 59 18336259030256706461
10937287 8 17831021595240630876
12160290 23 17261292719179778646
12741549 16 17386562436959015102
13140716 1 18120928675475087282
13583140 156 18409456903646495547
13878862 14 18265030515241155949
13965767 371 17973981119354958416
151778 21 18189899897065641285
15420108 30 17771879861890030282
15439362 3 18120099631192770300
17868525 174 18336538305772006097
17980427 23 17559366176473003167
1813 80 18198067975912672974
18335252 114 18199176301551448365
18681886 176 17703785963666570422
19301679 30 17686328777172197466
20465049 17 18197519495597894846
20642791 178 18191305086143020052
21133410 221 14897747910935031937
21344244 78 18198608965550240579
21641784 216 18118140073985895966
21860390 5 18342178864525435518
22122407 14 18270975570454665105
2255824 54 18337670931560795462
23558518 356 17906441479047052318
23559900 14 18260551117411677987
238 59 18194128631797356122
3380486 145 17693325124709898986
345986 75 17973989675051138546
376196 1 16267124651515183200
397830 11 17895772798243496523
474 4 18263923417851633127
513532 50 17275390914621299485
57527573 199 17699274779554542296
57724786 102 18187929521264254237
60111433 81 17416946487157489233
6443956 14 18412543189281529914
7808743 9 17253153541210776300
8272917 22 18409168822202838471
9849439 229 17907853260387742441

> <PUBCHEM_SHAPE_MULTIPOLES>
533.95
11.08
5.14
1.64
27.85
2.22
0.02
0.53
0.23
-7.7
0.12
-1
1.19
-1.48

> <PUBCHEM_SHAPE_SELFOVERLAP>
1119.306

> <PUBCHEM_SHAPE_VOLUME>
302.7

> <PUBCHEM_COORDINATE_TYPE>
2
5
10

$$$$