127050249
  -OEChem-03242010103D

 42 43  0     0  0  0  0  0  0999 V2000
    3.4538    1.2145    1.8941 Cl  0  0  0  0  0  0  0  0  0  0  0  0
   -1.2779    2.4276    1.5165 Cl  0  0  0  0  0  0  0  0  0  0  0  0
   -5.4795   -1.2871   -1.2116 Cl  0  0  0  0  0  0  0  0  0  0  0  0
    3.5269   -1.1343   -0.1388 O   0  0  0  0  0  0  0  0  0  0  0  0
   -0.3339   -0.5485    1.8567 O   0  0  0  0  0  0  0  0  0  0  0  0
    1.2303   -1.4607   -0.2496 N   0  0  0  0  0  0  0  0  0  0  0  0
   -0.0380   -0.9307   -0.4116 N   0  0  0  0  0  0  0  0  0  0  0  0
    1.2269   -2.8980   -0.0464 C   0  0  0  0  0  0  0  0  0  0  0  0
   -0.2189   -3.4046   -0.0747 C   0  0  0  0  0  0  0  0  0  0  0  0
    2.0341   -3.5697   -1.1633 C   0  0  0  0  0  0  0  0  0  0  0  0
    1.8629   -3.2192    1.3111 C   0  0  0  0  0  0  0  0  0  0  0  0
    2.3863   -0.6967   -0.2788 C   0  0  0  0  0  0  0  0  0  0  0  0
    2.2464    0.7535   -0.5085 C   0  0  0  0  0  0  0  0  0  0  0  0
   -0.7429   -0.5014    0.6994 C   0  0  0  0  0  0  0  0  0  0  0  0
   -2.0891    0.0629    0.4258 C   0  0  0  0  0  0  0  0  0  0  0  0
    2.6992    1.6941    0.4165 C   0  0  0  0  0  0  0  0  0  0  0  0
    1.6414    1.1751   -1.6925 C   0  0  0  0  0  0  0  0  0  0  0  0
    2.5471    3.0563    0.1576 C   0  0  0  0  0  0  0  0  0  0  0  0
    1.4891    2.5372   -1.9515 C   0  0  0  0  0  0  0  0  0  0  0  0
   -2.4199    1.3759    0.7608 C   0  0  0  0  0  0  0  0  0  0  0  0
   -3.0350   -0.7606   -0.1846 C   0  0  0  0  0  0  0  0  0  0  0  0
    1.9420    3.4779   -1.0264 C   0  0  0  0  0  0  0  0  0  0  0  0
   -4.3118   -0.2710   -0.4602 C   0  0  0  0  0  0  0  0  0  0  0  0
   -3.6967    1.8655    0.4853 C   0  0  0  0  0  0  0  0  0  0  0  0
   -4.6427    1.0420   -0.1252 C   0  0  0  0  0  0  0  0  0  0  0  0
   -0.2211   -4.4999    0.0104 H   0  0  0  0  0  0  0  0  0  0  0  0
    1.9690   -4.6616   -1.0889 H   0  0  0  0  0  0  0  0  0  0  0  0
    3.0977   -3.3149   -1.1359 H   0  0  0  0  0  0  0  0  0  0  0  0
   -0.8225   -3.0584    0.7703 H   0  0  0  0  0  0  0  0  0  0  0  0
   -0.7359   -3.1872   -1.0170 H   0  0  0  0  0  0  0  0  0  0  0  0
    1.7894   -4.2913    1.5289 H   0  0  0  0  0  0  0  0  0  0  0  0
    1.3609   -2.6839    2.1247 H   0  0  0  0  0  0  0  0  0  0  0  0
    2.9249   -2.9604    1.3580 H   0  0  0  0  0  0  0  0  0  0  0  0
    1.6540   -3.2821   -2.1507 H   0  0  0  0  0  0  0  0  0  0  0  0
   -0.3901   -0.8724   -1.3619 H   0  0  0  0  0  0  0  0  0  0  0  0
    1.3017    0.4607   -2.4381 H   0  0  0  0  0  0  0  0  0  0  0  0
    2.8941    3.8021    0.8682 H   0  0  0  0  0  0  0  0  0  0  0  0
    1.0222    2.8656   -2.8754 H   0  0  0  0  0  0  0  0  0  0  0  0
   -2.7853   -1.7867   -0.4429 H   0  0  0  0  0  0  0  0  0  0  0  0
    1.8238    4.5384   -1.2284 H   0  0  0  0  0  0  0  0  0  0  0  0
   -3.9703    2.8864    0.7399 H   0  0  0  0  0  0  0  0  0  0  0  0
   -5.6338    1.4368   -0.3338 H   0  0  0  0  0  0  0  0  0  0  0  0
  1 16  1  0  0  0  0
  2 20  1  0  0  0  0
  3 23  1  0  0  0  0
  4 12  2  0  0  0  0
  5 14  2  0  0  0  0
  6  7  1  0  0  0  0
  6  8  1  0  0  0  0
  6 12  1  0  0  0  0
  7 14  1  0  0  0  0
  7 35  1  0  0  0  0
  8  9  1  0  0  0  0
  8 10  1  0  0  0  0
  8 11  1  0  0  0  0
  9 26  1  0  0  0  0
  9 29  1  0  0  0  0
  9 30  1  0  0  0  0
 10 27  1  0  0  0  0
 10 28  1  0  0  0  0
 10 34  1  0  0  0  0
 11 31  1  0  0  0  0
 11 32  1  0  0  0  0
 11 33  1  0  0  0  0
 12 13  1  0  0  0  0
 13 16  1  0  0  0  0
 13 17  2  0  0  0  0
 14 15  1  0  0  0  0
 15 20  2  0  0  0  0
 15 21  1  0  0  0  0
 16 18  2  0  0  0  0
 17 19  1  0  0  0  0
 17 36  1  0  0  0  0
 18 22  1  0  0  0  0
 18 37  1  0  0  0  0
 19 22  2  0  0  0  0
 19 38  1  0  0  0  0
 20 24  1  0  0  0  0
 21 23  2  0  0  0  0
 21 39  1  0  0  0  0
 22 40  1  0  0  0  0
 23 25  1  0  0  0  0
 24 25  2  0  0  0  0
 24 41  1  0  0  0  0
 25 42  1  0  0  0  0
M  END
> <PUBCHEM_COMPOUND_CID>
127050249

> <PUBCHEM_CONFORMER_RMSD>
0.8

> <PUBCHEM_CONFORMER_DIVERSEORDER>
2
20
29
26
24
14
32
22
12
28
27
23
30
11
33
31
15
19
18
25
17
21
7
3
13
8
4
1
6
10
9
16
5

> <PUBCHEM_MMFF94_PARTIAL_CHARGES>
30
1 -0.18
12 0.54
13 0.09
14 0.54
15 0.09
16 0.18
17 -0.15
18 -0.15
19 -0.15
2 -0.18
20 0.18
21 -0.15
22 -0.15
23 0.18
24 -0.15
25 -0.15
3 -0.18
35 0.37
36 0.15
37 0.15
38 0.15
39 0.15
4 -0.57
40 0.15
41 0.15
42 0.15
5 -0.57
6 -0.36
7 -0.43
8 0.3

> <PUBCHEM_EFFECTIVE_ROTOR_COUNT>
6

> <PUBCHEM_PHARMACOPHORE_FEATURES>
6
1 4 acceptor
1 5 acceptor
1 7 donor
4 8 9 10 11 hydrophobe
6 13 16 17 18 19 22 rings
6 15 20 21 23 24 25 rings

> <PUBCHEM_HEAVY_ATOM_COUNT>
25

> <PUBCHEM_ATOM_DEF_STEREO_COUNT>
0

> <PUBCHEM_ATOM_UDEF_STEREO_COUNT>
0

> <PUBCHEM_BOND_DEF_STEREO_COUNT>
0

> <PUBCHEM_BOND_UDEF_STEREO_COUNT>
0

> <PUBCHEM_ISOTOPIC_ATOM_COUNT>
0

> <PUBCHEM_COMPONENT_COUNT>
1

> <PUBCHEM_CACTVS_TAUTO_COUNT>
2

> <PUBCHEM_CONFORMER_ID>
0792A20900000002

> <PUBCHEM_MMFF94_ENERGY>
80.845

> <PUBCHEM_FEATURE_SELFOVERLAP>
30.446

> <PUBCHEM_SHAPE_FINGERPRINT>
10090160 65 18265604550104052583
11370993 70 18265611163963519157
11578080 2 17192043290808404674
11582403 64 16700593814111202176
12403259 327 16588018047799370640
12553582 1 17759535369429141659
12788726 201 17326614107837777286
13134695 92 18041843883285415534
13140716 1 18265063594256310570
13617811 41 18196073655947399365
13965767 371 18044357543219055596
15420108 30 18270661105311972202
17349148 13 18334571360989865169
17492 89 18270683052753552255
18681886 176 18271800203289662778
192875 21 18334009518900992917
19319366 153 18196072547334907463
20642791 105 17760074512230868818
20715895 44 18262221305781173461
22393880 68 18272655610471743885
2255824 54 18336838523642923406
22749437 52 18336267950302308885
23419403 2 17263806258621440346
23558518 356 18119527889066669202
23559900 14 18341608158209015803
238 59 18263944239773858979
350125 39 18048341095294580430
352729 6 18194129735403685586
474 4 18333733545882487189
484989 97 18049449441591196851
57527585 21 15262030290713684376
6287921 2 18411422791370237933
6443956 14 18265619771146324940
67856867 119 18340475699771048307
6992083 37 17549275730879315753
7364860 26 18341334370712114002
7832392 63 17907306455147178225
81228 2 16963533953755274994
84936 182 18342181089213005825
8509985 295 8141821482097581527
9709674 26 18339368474604093723
9981440 41 18265334099775810305

> <PUBCHEM_SHAPE_MULTIPOLES>
498.4
7.78
4.6
1.59
10.76
2.12
0.05
-1.57
-1.01
-3.77
-0.52
-0.77
-0.59
-1.06

> <PUBCHEM_SHAPE_SELFOVERLAP>
1035.599

> <PUBCHEM_SHAPE_VOLUME>
286

> <PUBCHEM_COORDINATE_TYPE>
2
5
10

$$$$