2729881
  -OEChem-03242010103D

 61 61  0     1  0  0  0  0  0999 V2000
    2.5507   -1.2623   -1.3335 O   0  0  0  0  0  0  0  0  0  0  0  0
    0.6201   -2.2034    0.7959 O   0  0  0  0  0  0  0  0  0  0  0  0
    1.7358    1.7247    0.6082 O   0  0  0  0  0  0  0  0  0  0  0  0
    4.4412    1.0539    0.2490 O   0  0  0  0  0  0  0  0  0  0  0  0
   -1.8647    1.2054   -1.2315 O   0  0  0  0  0  0  0  0  0  0  0  0
    3.3261   -2.9121    0.0854 O   0  0  0  0  0  0  0  0  0  0  0  0
    0.7042   -1.0549    2.7985 O   0  0  0  0  0  0  0  0  0  0  0  0
    1.0050    3.4221   -0.7781 O   0  0  0  0  0  0  0  0  0  0  0  0
    6.2818    1.8844   -0.8732 O   0  0  0  0  0  0  0  0  0  0  0  0
   -1.6446   -1.0818   -0.9157 N   0  0  0  0  0  0  0  0  0  0  0  0
    2.0467   -0.5288   -0.2182 C   0  0  2  0  0  0  0  0  0  0  0  0
    0.5998   -0.9681    0.0799 C   0  0  1  0  0  0  0  0  0  0  0  0
    2.1710    0.9751   -0.5280 C   0  0  2  0  0  0  0  0  0  0  0  0
   -0.2328   -1.1564   -1.1916 C   0  0  0  0  0  0  0  0  0  0  0  0
    3.6062    1.3836   -0.8567 C   0  0  0  0  0  0  0  0  0  0  0  0
   -2.3528    0.1116   -0.9595 C   0  0  0  0  0  0  0  0  0  0  0  0
    3.1700   -2.4414   -1.0331 C   0  0  0  0  0  0  0  0  0  0  0  0
    0.6733   -2.0954    2.1553 C   0  0  0  0  0  0  0  0  0  0  0  0
    1.1691    2.9347    0.3322 C   0  0  0  0  0  0  0  0  0  0  0  0
   -3.7974    0.0247   -0.6237 C   0  0  0  0  0  0  0  0  0  0  0  0
   -4.4591    1.1326   -0.0944 C   0  0  0  0  0  0  0  0  0  0  0  0
    3.6445   -3.0983   -2.2939 C   0  0  0  0  0  0  0  0  0  0  0  0
    5.7648    1.3612    0.1045 C   0  0  0  0  0  0  0  0  0  0  0  0
   -5.8152    1.0498    0.2219 C   0  0  0  0  0  0  0  0  0  0  0  0
    0.6883   -3.4624    2.7694 C   0  0  0  0  0  0  0  0  0  0  0  0
   -4.4916   -1.1663   -0.8366 C   0  0  0  0  0  0  0  0  0  0  0  0
    0.7632    3.6033    1.6106 C   0  0  0  0  0  0  0  0  0  0  0  0
   -6.5094   -0.1412    0.0092 C   0  0  0  0  0  0  0  0  0  0  0  0
   -5.8475   -1.2493   -0.5199 C   0  0  0  0  0  0  0  0  0  0  0  0
   -6.5018    2.2487    0.7892 C   0  0  0  0  0  0  0  0  0  0  0  0
    6.5163    0.9608    1.3379 C   0  0  0  0  0  0  0  0  0  0  0  0
   -7.9612   -0.2543    0.3405 C   0  0  0  0  0  0  0  0  0  0  0  0
    2.6536   -0.7255    0.6761 H   0  0  0  0  0  0  0  0  0  0  0  0
    0.1100   -0.2026    0.6951 H   0  0  0  0  0  0  0  0  0  0  0  0
    1.5520    1.1982   -1.4061 H   0  0  0  0  0  0  0  0  0  0  0  0
   -0.0536   -2.1418   -1.6355 H   0  0  0  0  0  0  0  0  0  0  0  0
    0.0011   -0.3923   -1.9392 H   0  0  0  0  0  0  0  0  0  0  0  0
    3.6605    2.4657   -1.0240 H   0  0  0  0  0  0  0  0  0  0  0  0
    3.9610    0.8675   -1.7560 H   0  0  0  0  0  0  0  0  0  0  0  0
   -2.0936   -1.9394   -0.6132 H   0  0  0  0  0  0  0  0  0  0  0  0
   -3.9186    2.0604    0.0775 H   0  0  0  0  0  0  0  0  0  0  0  0
    2.7917   -3.3125   -2.9429 H   0  0  0  0  0  0  0  0  0  0  0  0
    4.1407   -4.0412   -2.0471 H   0  0  0  0  0  0  0  0  0  0  0  0
    4.3623   -2.4493   -2.8018 H   0  0  0  0  0  0  0  0  0  0  0  0
   -4.0230   -2.0421   -1.2753 H   0  0  0  0  0  0  0  0  0  0  0  0
    1.5729   -4.0095    2.4340 H   0  0  0  0  0  0  0  0  0  0  0  0
    0.7277   -3.3702    3.8585 H   0  0  0  0  0  0  0  0  0  0  0  0
   -0.2234   -4.0003    2.4981 H   0  0  0  0  0  0  0  0  0  0  0  0
    0.0269    2.9870    2.1327 H   0  0  0  0  0  0  0  0  0  0  0  0
    0.3094    4.5725    1.3849 H   0  0  0  0  0  0  0  0  0  0  0  0
    1.6427    3.7680    2.2380 H   0  0  0  0  0  0  0  0  0  0  0  0
   -6.3753   -2.1825   -0.6981 H   0  0  0  0  0  0  0  0  0  0  0  0
   -5.8187    3.0994    0.8886 H   0  0  0  0  0  0  0  0  0  0  0  0
   -6.8941    2.0315    1.7879 H   0  0  0  0  0  0  0  0  0  0  0  0
   -7.3214    2.5682    0.1373 H   0  0  0  0  0  0  0  0  0  0  0  0
    6.1319    1.5107    2.2006 H   0  0  0  0  0  0  0  0  0  0  0  0
    7.5754    1.2040    1.2126 H   0  0  0  0  0  0  0  0  0  0  0  0
    6.4227   -0.1167    1.4948 H   0  0  0  0  0  0  0  0  0  0  0  0
   -8.5475    0.4607   -0.2458 H   0  0  0  0  0  0  0  0  0  0  0  0
   -8.3520   -1.2530    0.1163 H   0  0  0  0  0  0  0  0  0  0  0  0
   -8.1286   -0.0746    1.4074 H   0  0  0  0  0  0  0  0  0  0  0  0
  1 11  1  0  0  0  0
  1 17  1  0  0  0  0
  2 12  1  0  0  0  0
  2 18  1  0  0  0  0
  3 13  1  0  0  0  0
  3 19  1  0  0  0  0
  4 15  1  0  0  0  0
  4 23  1  0  0  0  0
  5 16  2  0  0  0  0
  6 17  2  0  0  0  0
  7 18  2  0  0  0  0
  8 19  2  0  0  0  0
  9 23  2  0  0  0  0
 10 14  1  0  0  0  0
 10 16  1  0  0  0  0
 10 40  1  0  0  0  0
 11 12  1  0  0  0  0
 11 13  1  0  0  0  0
 11 33  1  0  0  0  0
 12 14  1  0  0  0  0
 12 34  1  0  0  0  0
 13 15  1  0  0  0  0
 13 35  1  0  0  0  0
 14 36  1  0  0  0  0
 14 37  1  0  0  0  0
 15 38  1  0  0  0  0
 15 39  1  0  0  0  0
 16 20  1  0  0  0  0
 17 22  1  0  0  0  0
 18 25  1  0  0  0  0
 19 27  1  0  0  0  0
 20 21  2  0  0  0  0
 20 26  1  0  0  0  0
 21 24  1  0  0  0  0
 21 41  1  0  0  0  0
 22 42  1  0  0  0  0
 22 43  1  0  0  0  0
 22 44  1  0  0  0  0
 23 31  1  0  0  0  0
 24 28  2  0  0  0  0
 24 30  1  0  0  0  0
 25 46  1  0  0  0  0
 25 47  1  0  0  0  0
 25 48  1  0  0  0  0
 26 29  2  0  0  0  0
 26 45  1  0  0  0  0
 27 49  1  0  0  0  0
 27 50  1  0  0  0  0
 27 51  1  0  0  0  0
 28 29  1  0  0  0  0
 28 32  1  0  0  0  0
 29 52  1  0  0  0  0
 30 53  1  0  0  0  0
 30 54  1  0  0  0  0
 30 55  1  0  0  0  0
 31 56  1  0  0  0  0
 31 57  1  0  0  0  0
 31 58  1  0  0  0  0
 32 59  1  0  0  0  0
 32 60  1  0  0  0  0
 32 61  1  0  0  0  0
M  END
> <PUBCHEM_COMPOUND_CID>
2729881

> <PUBCHEM_CONFORMER_RMSD>
1.2

> <PUBCHEM_CONFORMER_DIVERSEORDER>
1
132
178
32
109
15
73
111
64
65
24
75
167
50
68
67
149
104
181
47
169
100
128
43
173
134
107
61
8
85
136
120
118
119
80
25
102
161
78
163
106
114
142
70
9
84
66
29
3
37
93
36
164
22
123
172
21
77
39
166
33
5
130
177
41
143
112
131
28
53
141
76
105
160
26
57
90
174
150
31
96
16
115
140
98
59
162
108
133
51
87
97
180
23
146
45
157
144
86
35
92
54
10
49
147
152
79
40
58
126
83
159
17
117
2
60
48
175
89
62
121
176
71
56
94
153
88
55
20
125
138
74
11
116
12
148
137
127
135
34
113
69
124
155
63
145
95
7
42
6
30
72
151
46
4
38
168
139
110
103
91
81
18
170
44
99
14
154
13
129
27
158
19
101
156
52
82
179
122
165
171

> <PUBCHEM_MMFF94_PARTIAL_CHARGES>
36
1 -0.43
10 -0.73
11 0.28
12 0.28
13 0.28
14 0.3
15 0.28
16 0.54
17 0.66
18 0.66
19 0.66
2 -0.43
20 0.09
21 -0.15
22 0.06
23 0.66
24 -0.14
25 0.06
26 -0.15
27 0.06
28 -0.14
29 -0.15
3 -0.43
30 0.14
31 0.06
32 0.14
4 -0.43
40 0.37
41 0.15
45 0.15
5 -0.57
52 0.15
6 -0.57
7 -0.57
8 -0.57
9 -0.57

> <PUBCHEM_EFFECTIVE_ROTOR_COUNT>
15

> <PUBCHEM_PHARMACOPHORE_FEATURES>
7
1 10 donor
1 5 acceptor
1 6 acceptor
1 7 acceptor
1 8 acceptor
1 9 acceptor
6 20 21 24 26 28 29 rings

> <PUBCHEM_HEAVY_ATOM_COUNT>
32

> <PUBCHEM_ATOM_DEF_STEREO_COUNT>
3

> <PUBCHEM_ATOM_UDEF_STEREO_COUNT>
0

> <PUBCHEM_BOND_DEF_STEREO_COUNT>
0

> <PUBCHEM_BOND_UDEF_STEREO_COUNT>
0

> <PUBCHEM_ISOTOPIC_ATOM_COUNT>
0

> <PUBCHEM_COMPONENT_COUNT>
1

> <PUBCHEM_CACTVS_TAUTO_COUNT>
2

> <PUBCHEM_CONFORMER_ID>
0029A79900000001

> <PUBCHEM_MMFF94_ENERGY>
62.8128

> <PUBCHEM_FEATURE_SELFOVERLAP>
35.524

> <PUBCHEM_SHAPE_FINGERPRINT>
10366900 7 17676779673814143115
10906281 52 18262810674083869524
11646440 116 18130509724915075768
14028597 1 18335128761914346344
14341114 176 18272095968217964893
14849402 71 18264487454406114581
15081414 286 18341331115322498724
17909252 39 18058459699231600102
18681886 176 17703502298794271053
21927370 108 17246652782260226330
22121540 332 15912749601872857688
22956985 138 15214963174419960450
23559900 14 18058729088449933791
3178227 256 18113901602088508689
392239 28 18115599282860196491
4073 2 18335709377068482623
4093350 32 18131072601838150534
4144715 1 18342470205801426487
4340502 62 17894629262209646118
5104073 3 18411423878329539499
5776283 40 18054796345226156016
59755656 215 18272090512881979332
70251023 43 17986125011210652190

> <PUBCHEM_SHAPE_MULTIPOLES>
600.74
16.43
3.99
1.92
19.83
0.35
-1.27
5.24
0.53
-4.18
-0.99
-1.64
-1.68
0.18

> <PUBCHEM_SHAPE_SELFOVERLAP>
1222.582

> <PUBCHEM_SHAPE_VOLUME>
346.5

> <PUBCHEM_COORDINATE_TYPE>
2
5
10

$$$$