44562411
  -OEChem-03242010103D

 62 66  0     1  0  0  0  0  0999 V2000
    9.1548   -1.9340   -0.4847 O   0  0  0  0  0  0  0  0  0  0  0  0
    9.8927    0.7374   -0.2962 O   0  0  0  0  0  0  0  0  0  0  0  0
   -7.2488   -0.3477    1.0141 O   0  0  0  0  0  0  0  0  0  0  0  0
   -7.1874   -0.9237   -1.3192 O   0  0  0  0  0  0  0  0  0  0  0  0
   -5.0798    0.6457   -0.9674 O   0  0  0  0  0  0  0  0  0  0  0  0
    3.5231    0.3145    0.3374 N   0  0  2  0  0  0  0  0  0  0  0  0
   -4.2267   -0.8656    0.6285 N   0  0  0  0  0  0  0  0  0  0  0  0
    3.7873    1.6000   -0.3205 C   0  0  0  0  0  0  0  0  0  0  0  0
    4.4113   -0.7280   -0.2069 C   0  0  0  0  0  0  0  0  0  0  0  0
    5.1951    2.0879    0.0362 C   0  0  0  0  0  0  0  0  0  0  0  0
    5.8706   -0.3338   -0.2001 C   0  0  0  0  0  0  0  0  0  0  0  0
    6.2441    1.0193   -0.1288 C   0  0  0  0  0  0  0  0  0  0  0  0
    2.1227   -0.0739    0.1740 C   0  0  0  0  0  0  0  0  0  0  0  0
    1.2283    0.6714    1.1651 C   0  0  0  0  0  0  0  0  0  0  0  0
    6.8605   -1.3172   -0.3309 C   0  0  0  0  0  0  0  0  0  0  0  0
    7.6012    1.3660   -0.1518 C   0  0  0  0  0  0  0  0  0  0  0  0
    8.2088   -0.9614   -0.3626 C   0  0  0  0  0  0  0  0  0  0  0  0
    8.5787    0.3785   -0.2710 C   0  0  0  0  0  0  0  0  0  0  0  0
   -0.2164    0.2636    1.0221 C   0  0  0  0  0  0  0  0  0  0  0  0
   -1.0526    0.9543    0.1448 C   0  0  0  0  0  0  0  0  0  0  0  0
   -0.7169   -0.8035    1.7679 C   0  0  0  0  0  0  0  0  0  0  0  0
   -2.3892    0.5780    0.0136 C   0  0  0  0  0  0  0  0  0  0  0  0
   -2.0536   -1.1799    1.6368 C   0  0  0  0  0  0  0  0  0  0  0  0
   -2.8898   -0.4890    0.7597 C   0  0  0  0  0  0  0  0  0  0  0  0
    8.6922   -3.2803   -0.5727 C   0  0  0  0  0  0  0  0  0  0  0  0
   10.1859    2.1298   -0.1972 C   0  0  0  0  0  0  0  0  0  0  0  0
   -6.5365   -0.9974   -0.0444 C   0  0  0  0  0  0  0  0  0  0  0  0
   -5.2088   -0.2981   -0.1943 C   0  0  0  0  0  0  0  0  0  0  0  0
   -8.3943    0.0062    0.3673 C   0  0  0  0  0  0  0  0  0  0  0  0
   -8.3593   -0.3235   -0.9690 C   0  0  0  0  0  0  0  0  0  0  0  0
   -9.4852    0.6338    0.9324 C   0  0  0  0  0  0  0  0  0  0  0  0
   -9.4129   -0.0439   -1.8143 C   0  0  0  0  0  0  0  0  0  0  0  0
  -10.5675    0.9256    0.0986 C   0  0  0  0  0  0  0  0  0  0  0  0
  -10.5315    0.5889   -1.2666 C   0  0  0  0  0  0  0  0  0  0  0  0
    3.6879    1.5058   -1.4107 H   0  0  0  0  0  0  0  0  0  0  0  0
    3.0824    2.3753   -0.0024 H   0  0  0  0  0  0  0  0  0  0  0  0
    4.2969   -1.6337    0.4020 H   0  0  0  0  0  0  0  0  0  0  0  0
    4.1327   -0.9744   -1.2404 H   0  0  0  0  0  0  0  0  0  0  0  0
    5.2120    2.4235    1.0811 H   0  0  0  0  0  0  0  0  0  0  0  0
    5.4396    2.9496   -0.5964 H   0  0  0  0  0  0  0  0  0  0  0  0
    2.0119   -1.1480    0.3783 H   0  0  0  0  0  0  0  0  0  0  0  0
    1.7823    0.0742   -0.8598 H   0  0  0  0  0  0  0  0  0  0  0  0
    1.2950    1.7577    1.0345 H   0  0  0  0  0  0  0  0  0  0  0  0
    1.5598    0.4769    2.1939 H   0  0  0  0  0  0  0  0  0  0  0  0
    6.5123   -2.3423   -0.4049 H   0  0  0  0  0  0  0  0  0  0  0  0
    7.8280    2.4242   -0.0715 H   0  0  0  0  0  0  0  0  0  0  0  0
   -0.6723    1.7861   -0.4425 H   0  0  0  0  0  0  0  0  0  0  0  0
   -0.0748   -1.3503    2.4534 H   0  0  0  0  0  0  0  0  0  0  0  0
   -2.9745    1.1598   -0.6847 H   0  0  0  0  0  0  0  0  0  0  0  0
   -2.4300   -2.0136    2.2241 H   0  0  0  0  0  0  0  0  0  0  0  0
   -4.5125   -1.6481    1.2132 H   0  0  0  0  0  0  0  0  0  0  0  0
    8.1703   -3.5889    0.3395 H   0  0  0  0  0  0  0  0  0  0  0  0
    9.5770   -3.9192   -0.6629 H   0  0  0  0  0  0  0  0  0  0  0  0
    8.0910   -3.4428   -1.4739 H   0  0  0  0  0  0  0  0  0  0  0  0
    9.7851    2.6888   -1.0497 H   0  0  0  0  0  0  0  0  0  0  0  0
    9.8620    2.5435    0.7639 H   0  0  0  0  0  0  0  0  0  0  0  0
   11.2755    2.2325   -0.2352 H   0  0  0  0  0  0  0  0  0  0  0  0
   -6.3983   -2.0556    0.2111 H   0  0  0  0  0  0  0  0  0  0  0  0
   -9.5077    0.8943    1.9843 H   0  0  0  0  0  0  0  0  0  0  0  0
   -9.3800   -0.3026   -2.8664 H   0  0  0  0  0  0  0  0  0  0  0  0
  -11.4456    1.4188    0.5064 H   0  0  0  0  0  0  0  0  0  0  0  0
  -11.3822    0.8253   -1.9000 H   0  0  0  0  0  0  0  0  0  0  0  0
  1 17  1  0  0  0  0
  1 25  1  0  0  0  0
  2 18  1  0  0  0  0
  2 26  1  0  0  0  0
  3 27  1  0  0  0  0
  3 29  1  0  0  0  0
  4 27  1  0  0  0  0
  4 30  1  0  0  0  0
  5 28  2  0  0  0  0
  6  8  1  0  0  0  0
  6  9  1  0  0  0  0
  6 13  1  0  0  0  0
  7 24  1  0  0  0  0
  7 28  1  0  0  0  0
  7 51  1  0  0  0  0
  8 10  1  0  0  0  0
  8 35  1  0  0  0  0
  8 36  1  0  0  0  0
  9 11  1  0  0  0  0
  9 37  1  0  0  0  0
  9 38  1  0  0  0  0
 10 12  1  0  0  0  0
 10 39  1  0  0  0  0
 10 40  1  0  0  0  0
 11 12  1  0  0  0  0
 11 15  2  0  0  0  0
 12 16  2  0  0  0  0
 13 14  1  0  0  0  0
 13 41  1  0  0  0  0
 13 42  1  0  0  0  0
 14 19  1  0  0  0  0
 14 43  1  0  0  0  0
 14 44  1  0  0  0  0
 15 17  1  0  0  0  0
 15 45  1  0  0  0  0
 16 18  1  0  0  0  0
 16 46  1  0  0  0  0
 17 18  2  0  0  0  0
 19 20  2  0  0  0  0
 19 21  1  0  0  0  0
 20 22  1  0  0  0  0
 20 47  1  0  0  0  0
 21 23  2  0  0  0  0
 21 48  1  0  0  0  0
 22 24  2  0  0  0  0
 22 49  1  0  0  0  0
 23 24  1  0  0  0  0
 23 50  1  0  0  0  0
 25 52  1  0  0  0  0
 25 53  1  0  0  0  0
 25 54  1  0  0  0  0
 26 55  1  0  0  0  0
 26 56  1  0  0  0  0
 26 57  1  0  0  0  0
 27 28  1  0  0  0  0
 27 58  1  0  0  0  0
 29 30  1  0  0  0  0
 29 31  2  0  0  0  0
 30 32  2  0  0  0  0
 31 33  1  0  0  0  0
 31 59  1  0  0  0  0
 32 34  1  0  0  0  0
 32 60  1  0  0  0  0
 33 34  2  0  0  0  0
 33 61  1  0  0  0  0
 34 62  1  0  0  0  0
M  END
> <PUBCHEM_COMPOUND_CID>
44562411

> <PUBCHEM_CONFORMER_RMSD>
1

> <PUBCHEM_CONFORMER_DIVERSEORDER>
3
94
51
127
50
74
62
10
142
133
144
125
21
19
67
102
97
31
2
13
43
103
85
4
146
110
46
37
49
56
128
93
71
134
137
18
75
32
141
73
116
119
36
130
86
117
80
124
25
131
96
58
28
113
38
24
143
5
121
79
112
35
139
136
95
78
122
106
70
40
17
82
54
140
118
41
42
84
76
129
61
104
1
65
30
120
26
48
7
68
92
115
33
123
9
16
114
83
47
15
66
126
99
81
44
138
12
107
64
20
59
63
105
87
11
109
45
53
72
111
77
98
89
60
14
57
108
29
145
88
100
22
55
39
91
101
34
69
52
90
6
23
27
132
135
8

> <PUBCHEM_MMFF94_PARTIAL_CHARGES>
45
1 -0.36
10 0.14
11 -0.14
12 -0.14
13 0.27
14 0.14
15 -0.15
16 -0.15
17 0.08
18 0.08
19 -0.14
2 -0.36
20 -0.15
21 -0.15
22 -0.15
23 -0.15
24 0.12
25 0.28
26 0.28
27 0.62
28 0.57
29 0.08
3 -0.36
30 0.08
31 -0.15
32 -0.15
33 -0.15
34 -0.15
4 -0.36
45 0.15
46 0.15
47 0.15
48 0.15
49 0.15
5 -0.57
50 0.15
51 0.37
59 0.15
6 -0.81
60 0.15
61 0.15
62 0.15
7 -0.55
8 0.27
9 0.41

> <PUBCHEM_EFFECTIVE_ROTOR_COUNT>
9.4

> <PUBCHEM_PHARMACOPHORE_FEATURES>
12
1 1 acceptor
1 2 acceptor
1 3 acceptor
1 4 acceptor
1 5 acceptor
1 6 cation
1 7 donor
5 3 4 27 29 30 rings
6 11 12 15 16 17 18 rings
6 19 20 21 22 23 24 rings
6 29 30 31 32 33 34 rings
6 6 8 9 10 11 12 rings

> <PUBCHEM_HEAVY_ATOM_COUNT>
34

> <PUBCHEM_ATOM_DEF_STEREO_COUNT>
0

> <PUBCHEM_ATOM_UDEF_STEREO_COUNT>
0

> <PUBCHEM_BOND_DEF_STEREO_COUNT>
0

> <PUBCHEM_BOND_UDEF_STEREO_COUNT>
0

> <PUBCHEM_ISOTOPIC_ATOM_COUNT>
0

> <PUBCHEM_COMPONENT_COUNT>
1

> <PUBCHEM_CACTVS_TAUTO_COUNT>
2

> <PUBCHEM_CONFORMER_ID>
02A7F7EB00000003

> <PUBCHEM_MMFF94_ENERGY>
110.5437

> <PUBCHEM_FEATURE_SELFOVERLAP>
61.091

> <PUBCHEM_SHAPE_FINGERPRINT>
10 15 12323959089430269025
10162869 55 16630528449148246480
10299344 5 17917994983552641833
106641 1 9943805591063866243
11061554 47 17603296055517637101
11409948 35 17458617862708709562
11607047 141 16226312774186434024
11672396 167 18338516310686440866
11828042 53 17486782871035963537
12089408 11 17632863018293670329
12098696 120 17458344143292369763
12522641 33 18413671301129055647
12539745 222 13758083978565195835
12559415 135 16988567879430577681
12664476 115 18259980491966908180
13150687 139 18187083948897645018
13740195 50 9799684905356187621
14040221 8 17775571926951144913
14150022 121 12035714402770183847
14251764 46 17967532380842054793
14344974 52 17967813898963454835
14918687 75 8430305828545779337
150020 25 18113056042928119435
15061470 23 18413106160847600361
15065858 18 18408323302056013515
15198563 99 17968093071448429733
15247644 1 15841554084879948045
15326923 82 17704348888831019512
15392192 104 12973603339768261265
15510794 2 18260271875343233859
15706992 2 13334743397114547175
15773216 30 17241318062936601866
16992610 120 15502382209616384666
1754911 235 18260826008298118471
18603816 31 16773504560800714559
20105231 36 18261116292643501075
20501277 180 13912907366482729910
21362267 313 16988011483534127754
21792961 116 18342455907770915113
22164985 6 17846770819492358692
232437 2 16917067767863225893
23524908 199 18334854992114297030
23729398 52 16445294691342335019
249057 3 17676209108166248732
3092352 35 17489304219276066519
3991529 128 14562533963991910903
42767 2 18131349713460105557
439807 62 18202283602667346464
4625314 4 18337109063912557631
474113 269 17917433095105281446
4874694 18 18333731343614349834
5028188 123 18335979849040152815
58083652 198 17274547632399901912
59521270 166 17418377974804520717
59682541 35 11815894561201234759
6081469 158 18113056022006969772
67123 10 18343865523862486192
9663363 56 15697998535411658280
9962374 69 14117506671357132089

> <PUBCHEM_SHAPE_MULTIPOLES>
660.4
45.55
1.85
1.22
23
0.64
0.09
-1.8
-14.71
-6.41
-0.23
2.57
0.21
0.78

> <PUBCHEM_SHAPE_SELFOVERLAP>
1443.627

> <PUBCHEM_SHAPE_VOLUME>
358.3

> <PUBCHEM_COORDINATE_TYPE>
2
5
10

$$$$