134130669
  -OEChem-03242010103D

 54 57  0     0  0  0  0  0  0999 V2000
   -3.5828    2.6611    0.4260 O   0  0  0  0  0  0  0  0  0  0  0  0
    2.2674    4.8715   -0.3520 O   0  0  0  0  0  0  0  0  0  0  0  0
    0.1444   -2.3829   -0.3261 N   0  0  0  0  0  0  0  0  0  0  0  0
   -0.7789   -1.5448    0.1660 N   0  0  0  0  0  0  0  0  0  0  0  0
   -2.4613    0.6333    0.0320 N   0  0  0  0  0  0  0  0  0  0  0  0
   -0.3213   -3.4407   -1.0045 N   0  0  0  0  0  0  0  0  0  0  0  0
   -1.6413   -3.3057   -0.9669 N   0  0  0  0  0  0  0  0  0  0  0  0
    5.6976   -1.5166    0.4259 C   0  0  0  0  0  0  0  0  0  0  0  0
    4.2372   -1.7445    0.2280 C   0  0  0  0  0  0  0  0  0  0  0  0
    6.1023   -1.5470    1.9120 C   0  0  0  0  0  0  0  0  0  0  0  0
    6.1820   -0.2049   -0.2206 C   0  0  0  0  0  0  0  0  0  0  0  0
    3.3130   -0.8448    0.7588 C   0  0  0  0  0  0  0  0  0  0  0  0
    3.7955   -2.8568   -0.4887 C   0  0  0  0  0  0  0  0  0  0  0  0
    1.5052   -2.1693   -0.1435 C   0  0  0  0  0  0  0  0  0  0  0  0
    1.9470   -1.0573    0.5731 C   0  0  0  0  0  0  0  0  0  0  0  0
    2.4295   -3.0692   -0.6744 C   0  0  0  0  0  0  0  0  0  0  0  0
   -3.2143   -1.6833   -0.0052 C   0  0  0  0  0  0  0  0  0  0  0  0
   -3.4789   -0.3210    0.1351 C   0  0  0  0  0  0  0  0  0  0  0  0
   -1.8820   -2.1645   -0.2611 C   0  0  0  0  0  0  0  0  0  0  0  0
   -4.2515   -2.6098    0.1021 C   0  0  0  0  0  0  0  0  0  0  0  0
   -4.7806    0.1149    0.3826 C   0  0  0  0  0  0  0  0  0  0  0  0
   -5.5532   -2.1739    0.3497 C   0  0  0  0  0  0  0  0  0  0  0  0
   -5.8178   -0.8116    0.4900 C   0  0  0  0  0  0  0  0  0  0  0  0
   -2.5668    2.0208    0.1780 C   0  0  0  0  0  0  0  0  0  0  0  0
   -1.2917    2.7721    0.0384 C   0  0  0  0  0  0  0  0  0  0  0  0
   -1.1311    3.9983    0.6837 C   0  0  0  0  0  0  0  0  0  0  0  0
   -0.2564    2.2515   -0.7379 C   0  0  0  0  0  0  0  0  0  0  0  0
    1.1003    4.1833   -0.2237 C   0  0  0  0  0  0  0  0  0  0  0  0
    0.0650    4.7039    0.5526 C   0  0  0  0  0  0  0  0  0  0  0  0
    0.9396    2.9571   -0.8689 C   0  0  0  0  0  0  0  0  0  0  0  0
    3.2839    4.2809   -1.1607 C   0  0  0  0  0  0  0  0  0  0  0  0
    6.2528   -2.3281   -0.0641 H   0  0  0  0  0  0  0  0  0  0  0  0
    5.7838   -2.4838    2.3827 H   0  0  0  0  0  0  0  0  0  0  0  0
    7.2707   -0.1158   -0.1386 H   0  0  0  0  0  0  0  0  0  0  0  0
    7.1903   -1.4718    2.0150 H   0  0  0  0  0  0  0  0  0  0  0  0
    5.9214   -0.1761   -1.2845 H   0  0  0  0  0  0  0  0  0  0  0  0
    5.7387    0.6756    0.2570 H   0  0  0  0  0  0  0  0  0  0  0  0
    5.6563   -0.7201    2.4750 H   0  0  0  0  0  0  0  0  0  0  0  0
    3.6349    0.0284    1.3196 H   0  0  0  0  0  0  0  0  0  0  0  0
    4.5023   -3.5674   -0.9089 H   0  0  0  0  0  0  0  0  0  0  0  0
    1.2585   -0.3339    1.0021 H   0  0  0  0  0  0  0  0  0  0  0  0
    2.1254   -3.9474   -1.2381 H   0  0  0  0  0  0  0  0  0  0  0  0
   -4.0722   -3.6777    0.0024 H   0  0  0  0  0  0  0  0  0  0  0  0
   -1.5348    0.2517   -0.1198 H   0  0  0  0  0  0  0  0  0  0  0  0
   -5.0788    1.1460    0.4983 H   0  0  0  0  0  0  0  0  0  0  0  0
   -6.3608   -2.8951    0.4342 H   0  0  0  0  0  0  0  0  0  0  0  0
   -6.8323   -0.4739    0.6815 H   0  0  0  0  0  0  0  0  0  0  0  0
   -1.9232    4.4193    1.2974 H   0  0  0  0  0  0  0  0  0  0  0  0
   -0.3496    1.3216   -1.2906 H   0  0  0  0  0  0  0  0  0  0  0  0
    0.1850    5.6581    1.0585 H   0  0  0  0  0  0  0  0  0  0  0  0
    1.6996    2.4990   -1.4928 H   0  0  0  0  0  0  0  0  0  0  0  0
    4.1417    4.9613   -1.1498 H   0  0  0  0  0  0  0  0  0  0  0  0
    2.9638    4.1866   -2.2040 H   0  0  0  0  0  0  0  0  0  0  0  0
    3.6268    3.3277   -0.7439 H   0  0  0  0  0  0  0  0  0  0  0  0
  1 24  2  0  0  0  0
  2 28  1  0  0  0  0
  2 31  1  0  0  0  0
  3  4  1  0  0  0  0
  3  6  1  0  0  0  0
  3 14  1  0  0  0  0
  4 19  2  0  0  0  0
  5 18  1  0  0  0  0
  5 24  1  0  0  0  0
  5 44  1  0  0  0  0
  6  7  2  0  0  0  0
  7 19  1  0  0  0  0
  8  9  1  0  0  0  0
  8 10  1  0  0  0  0
  8 11  1  0  0  0  0
  8 32  1  0  0  0  0
  9 12  2  0  0  0  0
  9 13  1  0  0  0  0
 10 33  1  0  0  0  0
 10 35  1  0  0  0  0
 10 38  1  0  0  0  0
 11 34  1  0  0  0  0
 11 36  1  0  0  0  0
 11 37  1  0  0  0  0
 12 15  1  0  0  0  0
 12 39  1  0  0  0  0
 13 16  2  0  0  0  0
 13 40  1  0  0  0  0
 14 15  2  0  0  0  0
 14 16  1  0  0  0  0
 15 41  1  0  0  0  0
 16 42  1  0  0  0  0
 17 18  1  0  0  0  0
 17 19  1  0  0  0  0
 17 20  2  0  0  0  0
 18 21  2  0  0  0  0
 20 22  1  0  0  0  0
 20 43  1  0  0  0  0
 21 23  1  0  0  0  0
 21 45  1  0  0  0  0
 22 23  2  0  0  0  0
 22 46  1  0  0  0  0
 23 47  1  0  0  0  0
 24 25  1  0  0  0  0
 25 26  2  0  0  0  0
 25 27  1  0  0  0  0
 26 29  1  0  0  0  0
 26 48  1  0  0  0  0
 27 30  2  0  0  0  0
 27 49  1  0  0  0  0
 28 29  2  0  0  0  0
 28 30  1  0  0  0  0
 29 50  1  0  0  0  0
 30 51  1  0  0  0  0
 31 52  1  0  0  0  0
 31 53  1  0  0  0  0
 31 54  1  0  0  0  0
M  END
> <PUBCHEM_COMPOUND_CID>
134130669

> <PUBCHEM_CONFORMER_RMSD>
1

> <PUBCHEM_CONFORMER_DIVERSEORDER>
1
5
11
6
4
10
2
12
3
9
7
8

> <PUBCHEM_MMFF94_PARTIAL_CHARGES>
42
1 -0.57
12 -0.15
13 -0.15
14 -0.02
15 -0.15
16 -0.15
17 0.05
18 0.12
19 0.46
2 -0.36
20 -0.15
21 -0.15
22 -0.15
23 -0.15
24 0.54
25 0.09
26 -0.15
27 -0.15
28 0.08
29 -0.15
3 0.86
30 -0.15
31 0.28
39 0.15
4 -0.71
40 0.15
41 0.15
42 0.15
43 0.15
44 0.37
45 0.15
46 0.15
47 0.15
48 0.15
49 0.15
5 -0.55
50 0.15
51 0.15
6 -0.42
7 -0.23
8 0.14
9 -0.14

> <PUBCHEM_EFFECTIVE_ROTOR_COUNT>
7

> <PUBCHEM_PHARMACOPHORE_FEATURES>
9
1 1 acceptor
1 2 acceptor
1 5 donor
3 4 7 19 cation
3 8 10 11 hydrophobe
5 3 4 6 7 19 rings
6 17 18 20 21 22 23 rings
6 25 26 27 28 29 30 rings
6 9 12 13 14 15 16 rings

> <PUBCHEM_HEAVY_ATOM_COUNT>
31

> <PUBCHEM_ATOM_DEF_STEREO_COUNT>
0

> <PUBCHEM_ATOM_UDEF_STEREO_COUNT>
0

> <PUBCHEM_BOND_DEF_STEREO_COUNT>
0

> <PUBCHEM_BOND_UDEF_STEREO_COUNT>
0

> <PUBCHEM_ISOTOPIC_ATOM_COUNT>
0

> <PUBCHEM_COMPONENT_COUNT>
1

> <PUBCHEM_CACTVS_TAUTO_COUNT>
18

> <PUBCHEM_CONFORMER_ID>
07FEABED00000001

> <PUBCHEM_MMFF94_ENERGY>
101.9586

> <PUBCHEM_FEATURE_SELFOVERLAP>
45.671

> <PUBCHEM_SHAPE_FINGERPRINT>
10256941 240 16888056891745990052
10670039 82 18265067842738764942
10693767 8 15180086051570781719
1100329 8 18338801246261228951
11513181 2 17696760226641938982
11578080 2 12678639473436173395
11595378 159 18117261589395862066
12156800 1 16341770268481104385
12788726 201 18261954055546607034
13561361 72 18267293249977935176
138480 1 14375070092020359661
140371 6 18267874891555103789
14114211 68 17537460773927342717
14117953 113 18341049619313433045
14394314 77 18339933696078464497
14415361 192 17459170933108168925
15001296 14 18118968224805037700
15320467 1 18339082704385163412
15351339 4 17761776561158895956
15400415 2 16969422912908054088
15419008 145 18192699070089269706
15927050 60 17691693702271833222
15961568 22 18412549782246733854
17627616 140 18049161369259447860
18336668 15 18113902658328327141
19611394 137 18116448113599508907
21033648 29 17917132923640475659
21344244 246 18051118492332760815
21360443 120 17829052357104326148
21796203 349 18048073814841873153
23516275 137 17972330774135272312
23559900 14 18411409636149466233
25019877 29 17275097344990433791
373842 8 18337389447973031928
469060 322 18339653226070522786
474144 1 18042423446420050444
57091435 65 18192999450524806357
57676310 188 18118412976203414188
653340 110 18124313805483697250
9777508 108 17690842259581488462
9961470 85 18054498385778834744

> <PUBCHEM_SHAPE_MULTIPOLES>
601.32
12.14
7.34
0.99
4.78
9.91
0.13
-9.61
3.45
2.05
-1.31
0.93
-0.05
-1.38

> <PUBCHEM_SHAPE_SELFOVERLAP>
1313.809

> <PUBCHEM_SHAPE_VOLUME>
326.7

> <PUBCHEM_COORDINATE_TYPE>
2
5
10

$$$$