11609210
  -OEChem-03242010103D

 41 43  0     0  0  0  0  0  0999 V2000
   -3.0453    0.9868   -2.3867 O   0  0  0  0  0  0  0  0  0  0  0  0
   -3.0472    0.9835    2.3865 O   0  0  0  0  0  0  0  0  0  0  0  0
    2.8291    4.1073    0.0016 O   0  0  0  0  0  0  0  0  0  0  0  0
    0.1600   -1.7586   -0.0007 C   0  0  0  0  0  0  0  0  0  0  0  0
    1.4892   -1.3269    0.0000 C   0  0  0  0  0  0  0  0  0  0  0  0
   -0.9431   -0.8153   -0.0004 C   0  0  0  0  0  0  0  0  0  0  0  0
    1.8350    0.0775    0.0006 C   0  0  0  0  0  0  0  0  0  0  0  0
   -0.1344   -3.1220   -0.0014 C   0  0  0  0  0  0  0  0  0  0  0  0
    2.5215   -2.2684   -0.0001 C   0  0  0  0  0  0  0  0  0  0  0  0
   -1.4698   -0.3656    1.2076 C   0  0  0  0  0  0  0  0  0  0  0  0
   -1.4689   -0.3638   -1.2084 C   0  0  0  0  0  0  0  0  0  0  0  0
   -2.5285    0.5433   -1.2082 C   0  0  0  0  0  0  0  0  0  0  0  0
   -2.5295    0.5415    1.2078 C   0  0  0  0  0  0  0  0  0  0  0  0
    0.8992   -4.0586   -0.0015 C   0  0  0  0  0  0  0  0  0  0  0  0
    2.2272   -3.6319   -0.0009 C   0  0  0  0  0  0  0  0  0  0  0  0
    2.0020    0.7550   -1.2072 C   0  0  0  0  0  0  0  0  0  0  0  0
    2.0019    0.7544    1.2087 C   0  0  0  0  0  0  0  0  0  0  0  0
   -3.0589    0.9959   -0.0001 C   0  0  0  0  0  0  0  0  0  0  0  0
    2.3360    2.1093   -1.2069 C   0  0  0  0  0  0  0  0  0  0  0  0
    2.3360    2.1087    1.2090 C   0  0  0  0  0  0  0  0  0  0  0  0
    2.5031    2.7861    0.0012 C   0  0  0  0  0  0  0  0  0  0  0  0
   -2.4559    0.4833   -3.5845 C   0  0  0  0  0  0  0  0  0  0  0  0
   -2.4587    0.4786    3.5841 C   0  0  0  0  0  0  0  0  0  0  0  0
   -1.1634   -3.4742   -0.0019 H   0  0  0  0  0  0  0  0  0  0  0  0
    3.5635   -1.9562    0.0003 H   0  0  0  0  0  0  0  0  0  0  0  0
   -1.0226   -0.7501    2.1190 H   0  0  0  0  0  0  0  0  0  0  0  0
   -1.0208   -0.7471   -2.1198 H   0  0  0  0  0  0  0  0  0  0  0  0
    0.6702   -5.1203   -0.0020 H   0  0  0  0  0  0  0  0  0  0  0  0
    3.0318   -4.3614   -0.0010 H   0  0  0  0  0  0  0  0  0  0  0  0
    1.8754    0.2426   -2.1582 H   0  0  0  0  0  0  0  0  0  0  0  0
    1.8752    0.2417    2.1593 H   0  0  0  0  0  0  0  0  0  0  0  0
   -3.8846    1.7028    0.0000 H   0  0  0  0  0  0  0  0  0  0  0  0
    2.4629    2.6256   -2.1546 H   0  0  0  0  0  0  0  0  0  0  0  0
    2.4643    2.6306    2.1533 H   0  0  0  0  0  0  0  0  0  0  0  0
   -2.5898   -0.6001   -3.6747 H   0  0  0  0  0  0  0  0  0  0  0  0
   -1.4056    0.7816   -3.6727 H   0  0  0  0  0  0  0  0  0  0  0  0
   -2.9891    0.9414   -4.4240 H   0  0  0  0  0  0  0  0  0  0  0  0
   -1.4084    0.7768    3.6733 H   0  0  0  0  0  0  0  0  0  0  0  0
   -2.5925   -0.6049    3.6728 H   0  0  0  0  0  0  0  0  0  0  0  0
   -2.9924    0.9357    4.4238 H   0  0  0  0  0  0  0  0  0  0  0  0
    2.9044    4.4136   -0.9185 H   0  0  0  0  0  0  0  0  0  0  0  0
  1 12  1  0  0  0  0
  1 22  1  0  0  0  0
  2 13  1  0  0  0  0
  2 23  1  0  0  0  0
  3 21  1  0  0  0  0
  3 41  1  0  0  0  0
  4  5  1  0  0  0  0
  4  6  1  0  0  0  0
  4  8  2  0  0  0  0
  5  7  1  0  0  0  0
  5  9  2  0  0  0  0
  6 10  2  0  0  0  0
  6 11  1  0  0  0  0
  7 16  2  0  0  0  0
  7 17  1  0  0  0  0
  8 14  1  0  0  0  0
  8 24  1  0  0  0  0
  9 15  1  0  0  0  0
  9 25  1  0  0  0  0
 10 13  1  0  0  0  0
 10 26  1  0  0  0  0
 11 12  2  0  0  0  0
 11 27  1  0  0  0  0
 12 18  1  0  0  0  0
 13 18  2  0  0  0  0
 14 15  2  0  0  0  0
 14 28  1  0  0  0  0
 15 29  1  0  0  0  0
 16 19  1  0  0  0  0
 16 30  1  0  0  0  0
 17 20  2  0  0  0  0
 17 31  1  0  0  0  0
 18 32  1  0  0  0  0
 19 21  2  0  0  0  0
 19 33  1  0  0  0  0
 20 21  1  0  0  0  0
 20 34  1  0  0  0  0
 22 35  1  0  0  0  0
 22 36  1  0  0  0  0
 22 37  1  0  0  0  0
 23 38  1  0  0  0  0
 23 39  1  0  0  0  0
 23 40  1  0  0  0  0
M  END
> <PUBCHEM_COMPOUND_CID>
11609210

> <PUBCHEM_CONFORMER_RMSD>
0.6

> <PUBCHEM_CONFORMER_DIVERSEORDER>
2
1

> <PUBCHEM_MMFF94_PARTIAL_CHARGES>
31
1 -0.36
10 -0.15
11 -0.15
12 0.08
13 0.08
14 -0.15
15 -0.15
16 -0.15
17 -0.15
18 -0.15
19 -0.15
2 -0.36
20 -0.15
21 0.08
22 0.28
23 0.28
24 0.15
25 0.15
26 0.15
27 0.15
28 0.15
29 0.15
3 -0.53
30 0.15
31 0.15
32 0.15
33 0.15
34 0.15
41 0.45
8 -0.15
9 -0.15

> <PUBCHEM_EFFECTIVE_ROTOR_COUNT>
4

> <PUBCHEM_PHARMACOPHORE_FEATURES>
6
1 1 acceptor
1 2 acceptor
1 3 donor
6 4 5 8 9 14 15 rings
6 6 10 11 12 13 18 rings
6 7 16 17 19 20 21 rings

> <PUBCHEM_HEAVY_ATOM_COUNT>
23

> <PUBCHEM_ATOM_DEF_STEREO_COUNT>
0

> <PUBCHEM_ATOM_UDEF_STEREO_COUNT>
0

> <PUBCHEM_BOND_DEF_STEREO_COUNT>
0

> <PUBCHEM_BOND_UDEF_STEREO_COUNT>
0

> <PUBCHEM_ISOTOPIC_ATOM_COUNT>
0

> <PUBCHEM_COMPONENT_COUNT>
1

> <PUBCHEM_CACTVS_TAUTO_COUNT>
2

> <PUBCHEM_CONFORMER_ID>
00B1247A00000002

> <PUBCHEM_MMFF94_ENERGY>
94.6256

> <PUBCHEM_FEATURE_SELFOVERLAP>
30.446

> <PUBCHEM_SHAPE_FINGERPRINT>
10165383 225 17902554593461932692
104564 63 17259630244676846958
10871710 139 16597308057966352092
11582403 64 16739119533021794477
11640471 11 17703507705704494345
11725454 13 16954178449769050317
12156800 1 15821339245538556245
12173636 292 18054524756973243873
12293681 4 17109889942323235481
128993 33 18127434399413380065
13009979 54 17201333214601370199
13134695 92 18049423864976254854
133893 2 18339919325096052350
13681431 1 18119808011049027694
13911987 19 18046079155127141062
14817 1 15817111597849817547
14955137 171 18194992689440248978
15664445 248 15336558410396600245
17357779 13 17760634872577740150
17357990 137 17344645741976879571
1813 80 17625276207948410838
18219364 16 18333735701671064302
18981168 100 18336835298085723060
19930381 70 18336247025485484845
20510252 161 17475796927963054426
21041028 32 17689455788155877066
23526113 38 17461445719650255851
23557571 272 16973379530816138164
238 59 18263341660283778975
25222932 49 14171465376183301062
266924 78 18412542089928333263
31174 14 18118992237829845091
350125 39 18265624362667246442
469060 322 16813199343385449625
57359948 33 16178668739734744501
621550 5 17102042878011888979
6442390 28 17836121069940350915
6992083 37 17198250080954605743
81228 2 17254293730710689002
9981440 41 18119221064771036409

> <PUBCHEM_SHAPE_MULTIPOLES>
455.72
5.19
4.37
2.66
2.46
0.95
0
-2.08
0
-6.07
0
4.11
-1.11
0.01

> <PUBCHEM_SHAPE_SELFOVERLAP>
1002.291

> <PUBCHEM_SHAPE_VOLUME>
247.7

> <PUBCHEM_COORDINATE_TYPE>
2
5
10

$$$$