44411699
  -OEChem-03242010103D

 72 77  0     1  0  0  0  0  0999 V2000
   -3.2724   -3.3084    0.2096 O   0  0  0  0  0  0  0  0  0  0  0  0
   -0.4172    0.0565    1.6147 O   0  0  0  0  0  0  0  0  0  0  0  0
    7.9816    0.8691   -0.3242 O   0  0  0  0  0  0  0  0  0  0  0  0
    6.6833    3.3267   -0.2930 O   0  0  0  0  0  0  0  0  0  0  0  0
   -1.5851   -1.8468    0.9150 N   0  0  0  0  0  0  0  0  0  0  0  0
    2.4772   -3.2408    0.1807 N   0  0  2  0  0  0  0  0  0  0  0  0
   -3.7909   -1.0654    0.9517 C   0  0  1  0  0  0  0  0  0  0  0  0
   -2.8291    0.0700    1.4250 C   0  0  2  0  0  0  0  0  0  0  0  0
   -4.6315   -0.5874   -0.2683 C   0  0  0  0  0  0  0  0  0  0  0  0
   -3.0038    1.3330    0.5318 C   0  0  0  0  0  0  0  0  0  0  0  0
   -5.3600    0.6619    0.2268 C   0  0  0  0  0  0  0  0  0  0  0  0
   -3.6505   -0.1293   -1.3455 C   0  0  0  0  0  0  0  0  0  0  0  0
   -4.4831    1.6965    0.6578 C   0  0  0  0  0  0  0  0  0  0  0  0
   -2.7760    0.9024   -0.9156 C   0  0  0  0  0  0  0  0  0  0  0  0
   -2.8826   -2.2319    0.6410 C   0  0  0  0  0  0  0  0  0  0  0  0
   -1.4506   -0.5411    1.3463 C   0  0  0  0  0  0  0  0  0  0  0  0
   -6.7351    0.8357    0.2719 C   0  0  0  0  0  0  0  0  0  0  0  0
   -3.5702   -0.6329   -2.6357 C   0  0  0  0  0  0  0  0  0  0  0  0
   -4.9864    2.8989    1.1310 C   0  0  0  0  0  0  0  0  0  0  0  0
   -1.8238    1.4273   -1.7771 C   0  0  0  0  0  0  0  0  0  0  0  0
   -0.4540   -2.7413    0.7622 C   0  0  0  0  0  0  0  0  0  0  0  0
   -7.2372    2.0476    0.7506 C   0  0  0  0  0  0  0  0  0  0  0  0
   -2.6093   -0.1036   -3.4994 C   0  0  0  0  0  0  0  0  0  0  0  0
   -6.3719    3.0687    1.1757 C   0  0  0  0  0  0  0  0  0  0  0  0
   -1.7444    0.9167   -3.0743 C   0  0  0  0  0  0  0  0  0  0  0  0
    0.2128   -2.6139   -0.6061 C   0  0  0  0  0  0  0  0  0  0  0  0
    1.4349   -3.5161   -0.8007 C   0  0  0  0  0  0  0  0  0  0  0  0
    3.2234   -2.0351   -0.1837 C   0  0  0  0  0  0  0  0  0  0  0  0
    3.3857   -4.3825    0.3020 C   0  0  0  0  0  0  0  0  0  0  0  0
    3.8631   -1.3937    1.0480 C   0  0  0  0  0  0  0  0  0  0  0  0
    4.6169   -0.1378    0.6895 C   0  0  0  0  0  0  0  0  0  0  0  0
    5.9663   -0.2093    0.3436 C   0  0  0  0  0  0  0  0  0  0  0  0
    3.9653    1.0955    0.7045 C   0  0  0  0  0  0  0  0  0  0  0  0
    6.6640    0.9521    0.0122 C   0  0  0  0  0  0  0  0  0  0  0  0
    4.6628    2.2570    0.3731 C   0  0  0  0  0  0  0  0  0  0  0  0
    6.0123    2.1852    0.0270 C   0  0  0  0  0  0  0  0  0  0  0  0
    8.5720   -0.4292   -0.3146 C   0  0  0  0  0  0  0  0  0  0  0  0
    5.9437    4.5457   -0.2534 C   0  0  0  0  0  0  0  0  0  0  0  0
   -4.4468   -1.3604    1.7815 H   0  0  0  0  0  0  0  0  0  0  0  0
   -3.0328    0.3089    2.4772 H   0  0  0  0  0  0  0  0  0  0  0  0
   -5.3158   -1.3583   -0.6362 H   0  0  0  0  0  0  0  0  0  0  0  0
   -2.3403    2.1520    0.8265 H   0  0  0  0  0  0  0  0  0  0  0  0
   -7.4110    0.0529   -0.0557 H   0  0  0  0  0  0  0  0  0  0  0  0
   -4.2342   -1.4222   -2.9719 H   0  0  0  0  0  0  0  0  0  0  0  0
   -4.3254    3.6935    1.4604 H   0  0  0  0  0  0  0  0  0  0  0  0
   -1.1506    2.2152   -1.4561 H   0  0  0  0  0  0  0  0  0  0  0  0
   -0.7959   -3.7720    0.9106 H   0  0  0  0  0  0  0  0  0  0  0  0
    0.2648   -2.5054    1.5547 H   0  0  0  0  0  0  0  0  0  0  0  0
   -8.3119    2.2045    0.7947 H   0  0  0  0  0  0  0  0  0  0  0  0
   -2.5288   -0.4857   -4.5137 H   0  0  0  0  0  0  0  0  0  0  0  0
   -6.7874    4.0032    1.5436 H   0  0  0  0  0  0  0  0  0  0  0  0
   -1.0041    1.3131   -3.7641 H   0  0  0  0  0  0  0  0  0  0  0  0
    0.4662   -1.5643   -0.7946 H   0  0  0  0  0  0  0  0  0  0  0  0
   -0.5250   -2.8710   -1.3781 H   0  0  0  0  0  0  0  0  0  0  0  0
    1.8127   -3.4247   -1.8275 H   0  0  0  0  0  0  0  0  0  0  0  0
    1.0821   -4.5507   -0.6941 H   0  0  0  0  0  0  0  0  0  0  0  0
    3.9785   -2.2504   -0.9525 H   0  0  0  0  0  0  0  0  0  0  0  0
    2.5646   -1.2806   -0.6298 H   0  0  0  0  0  0  0  0  0  0  0  0
    2.8356   -5.2749    0.6222 H   0  0  0  0  0  0  0  0  0  0  0  0
    4.1505   -4.2110    1.0657 H   0  0  0  0  0  0  0  0  0  0  0  0
    3.8882   -4.6140   -0.6444 H   0  0  0  0  0  0  0  0  0  0  0  0
    4.5507   -2.0850    1.5497 H   0  0  0  0  0  0  0  0  0  0  0  0
    3.0913   -1.1526    1.7914 H   0  0  0  0  0  0  0  0  0  0  0  0
    6.4181   -1.1957    0.3471 H   0  0  0  0  0  0  0  0  0  0  0  0
    2.9135    1.1624    0.9706 H   0  0  0  0  0  0  0  0  0  0  0  0
    4.0923    3.1787    0.4058 H   0  0  0  0  0  0  0  0  0  0  0  0
    9.6207   -0.3079   -0.6056 H   0  0  0  0  0  0  0  0  0  0  0  0
    8.1109   -1.0882   -1.0582 H   0  0  0  0  0  0  0  0  0  0  0  0
    8.5702   -0.8664    0.6898 H   0  0  0  0  0  0  0  0  0  0  0  0
    6.6318    5.3493   -0.5359 H   0  0  0  0  0  0  0  0  0  0  0  0
    5.5906    4.7709    0.7587 H   0  0  0  0  0  0  0  0  0  0  0  0
    5.1319    4.5494   -0.9889 H   0  0  0  0  0  0  0  0  0  0  0  0
  1 15  2  0  0  0  0
  2 16  2  0  0  0  0
  3 34  1  0  0  0  0
  3 37  1  0  0  0  0
  4 36  1  0  0  0  0
  4 38  1  0  0  0  0
  5 15  1  0  0  0  0
  5 16  1  0  0  0  0
  5 21  1  0  0  0  0
  6 27  1  0  0  0  0
  6 28  1  0  0  0  0
  6 29  1  0  0  0  0
  7  8  1  0  0  0  0
  7  9  1  0  0  0  0
  7 15  1  0  0  0  0
  7 39  1  0  0  0  0
  8 10  1  0  0  0  0
  8 16  1  0  0  0  0
  8 40  1  0  0  0  0
  9 11  1  0  0  0  0
  9 12  1  0  0  0  0
  9 41  1  0  0  0  0
 10 13  1  0  0  0  0
 10 14  1  0  0  0  0
 10 42  1  0  0  0  0
 11 13  1  0  0  0  0
 11 17  2  0  0  0  0
 12 14  1  0  0  0  0
 12 18  2  0  0  0  0
 13 19  2  0  0  0  0
 14 20  2  0  0  0  0
 17 22  1  0  0  0  0
 17 43  1  0  0  0  0
 18 23  1  0  0  0  0
 18 44  1  0  0  0  0
 19 24  1  0  0  0  0
 19 45  1  0  0  0  0
 20 25  1  0  0  0  0
 20 46  1  0  0  0  0
 21 26  1  0  0  0  0
 21 47  1  0  0  0  0
 21 48  1  0  0  0  0
 22 24  2  0  0  0  0
 22 49  1  0  0  0  0
 23 25  2  0  0  0  0
 23 50  1  0  0  0  0
 24 51  1  0  0  0  0
 25 52  1  0  0  0  0
 26 27  1  0  0  0  0
 26 53  1  0  0  0  0
 26 54  1  0  0  0  0
 27 55  1  0  0  0  0
 27 56  1  0  0  0  0
 28 30  1  0  0  0  0
 28 57  1  0  0  0  0
 28 58  1  0  0  0  0
 29 59  1  0  0  0  0
 29 60  1  0  0  0  0
 29 61  1  0  0  0  0
 30 31  1  0  0  0  0
 30 62  1  0  0  0  0
 30 63  1  0  0  0  0
 31 32  2  0  0  0  0
 31 33  1  0  0  0  0
 32 34  1  0  0  0  0
 32 64  1  0  0  0  0
 33 35  2  0  0  0  0
 33 65  1  0  0  0  0
 34 36  2  0  0  0  0
 35 36  1  0  0  0  0
 35 66  1  0  0  0  0
 37 67  1  0  0  0  0
 37 68  1  0  0  0  0
 37 69  1  0  0  0  0
 38 70  1  0  0  0  0
 38 71  1  0  0  0  0
 38 72  1  0  0  0  0
M  END
> <PUBCHEM_COMPOUND_CID>
44411699

> <PUBCHEM_CONFORMER_RMSD>
1.4

> <PUBCHEM_CONFORMER_DIVERSEORDER>
1
157
51
250
195
235
116
110
160
173
45
29
196
147
53
7
134
240
79
206
176
158
213
41
93
205
76
154
218
182
44
174
148
156
36
232
42
214
60
13
234
100
96
20
162
92
247
216
94
35
224
87
137
61
97
50
149
187
141
163
217
78
189
75
175
69
112
120
84
55
39
202
238
145
122
101
208
68
130
177
159
33
117
200
143
107
81
231
6
223
21
185
204
241
19
215
11
151
10
212
115
63
194
95
153
207
201
8
193
85
142
132
188
43
40
139
88
64
5
126
80
203
236
9
170
181
229
73
74
136
111
228
86
190
48
242
152
144
98
197
22
17
91
46
38
233
65
191
127
56
54
230
82
186
133
12
3
237
83
113
179
49
192
32
118
249
131
243
24
226
198
140
128
77
59
47
114
246
220
2
178
16
164
109
135
72
155
70
102
99
211
89
105
146
23
168
108
121
15
4
62
225
227
106
150
123
90
104
30
199
125
129
172
219
252
66
67
37
209
28
166
58
119
210
25
245
221
26
161
52
171
138
103
222
244
165
57
124
248
184
27
34
239
251
167
183
31
71
180
169
18
14

> <PUBCHEM_MMFF94_PARTIAL_CHARGES>
48
1 -0.57
10 0.29
11 -0.14
12 -0.14
13 -0.14
14 -0.14
15 0.57
16 0.57
17 -0.15
18 -0.15
19 -0.15
2 -0.57
20 -0.15
21 0.3
22 -0.15
23 -0.15
24 -0.15
25 -0.15
27 0.27
28 0.27
29 0.27
3 -0.36
30 0.14
31 -0.14
32 -0.15
33 -0.15
34 0.08
35 -0.15
36 0.08
37 0.28
38 0.28
4 -0.36
43 0.15
44 0.15
45 0.15
46 0.15
49 0.15
5 -0.42
50 0.15
51 0.15
52 0.15
6 -0.81
64 0.15
65 0.15
66 0.15
7 0.06
8 0.06
9 0.29

> <PUBCHEM_EFFECTIVE_ROTOR_COUNT>
9.2

> <PUBCHEM_PHARMACOPHORE_FEATURES>
10
1 1 acceptor
1 2 acceptor
1 3 acceptor
1 4 acceptor
1 6 cation
5 5 7 8 15 16 rings
6 11 13 17 19 22 24 rings
6 12 14 18 20 23 25 rings
6 31 32 33 34 35 36 rings
8 7 8 9 10 11 12 13 14 rings

> <PUBCHEM_HEAVY_ATOM_COUNT>
38

> <PUBCHEM_ATOM_DEF_STEREO_COUNT>
0

> <PUBCHEM_ATOM_UDEF_STEREO_COUNT>
2

> <PUBCHEM_BOND_DEF_STEREO_COUNT>
0

> <PUBCHEM_BOND_UDEF_STEREO_COUNT>
0

> <PUBCHEM_ISOTOPIC_ATOM_COUNT>
0

> <PUBCHEM_COMPONENT_COUNT>
1

> <PUBCHEM_CACTVS_TAUTO_COUNT>
1

> <PUBCHEM_CONFORMER_ID>
02A5AB3300000001

> <PUBCHEM_MMFF94_ENERGY>
128.843

> <PUBCHEM_FEATURE_SELFOVERLAP>
50.866

> <PUBCHEM_SHAPE_FINGERPRINT>
10369192 42 18409167710096153695
10930396 42 16515404075798891845
11017883 126 16986877826938104774
11135926 11 18335693932666240298
11621639 148 18114189649261688537
12013929 29 18126573318700600241
12422481 6 17385734552148243757
15131766 46 18342448253426991641
15183329 4 18260261954454089856
15513586 35 17681264783454433948
15840311 113 18123760751821143937
16728433 110 18266746767774217601
18393751 57 18113058220978042987
19053607 189 18341041991441382120
19309040 13 18273218577473074519
20691028 202 18340204206662544776
20771845 171 16915376577673041165
21033648 29 17096084663119013247
24204213 92 17557159311815841582
57724786 102 18338511937702565930

> <PUBCHEM_SHAPE_MULTIPOLES>
748.58
20.86
4.73
1.99
27.52
0.79
2.22
-18.23
-2.66
5.08
-0.63
-2.99
-0.13
-1.59

> <PUBCHEM_SHAPE_SELFOVERLAP>
1650.133

> <PUBCHEM_SHAPE_VOLUME>
406

> <PUBCHEM_COORDINATE_TYPE>
2
5
10

$$$$