105010
  -OEChem-03242010103D

 55 56  0     0  0  0  0  0  0999 V2000
   -3.8431    0.7502    0.7654 O   0  0  0  0  0  0  0  0  0  0  0  0
    0.4518    1.1557    1.5551 O   0  0  0  0  0  0  0  0  0  0  0  0
    4.9314   -1.0348    0.3955 O   0  0  0  0  0  0  0  0  0  0  0  0
   -1.7985    1.5053   -0.0360 N   0  0  0  0  0  0  0  0  0  0  0  0
   -0.5415    1.2190   -0.5397 N   0  0  0  0  0  0  0  0  0  0  0  0
   -2.0540    2.9291    0.0866 C   0  0  0  0  0  0  0  0  0  0  0  0
   -3.2673    3.3020   -0.7730 C   0  0  0  0  0  0  0  0  0  0  0  0
   -0.8211    3.7023   -0.3930 C   0  0  0  0  0  0  0  0  0  0  0  0
   -2.3405    3.2679    1.5540 C   0  0  0  0  0  0  0  0  0  0  0  0
   -2.7198    0.5315    0.3157 C   0  0  0  0  0  0  0  0  0  0  0  0
   -2.3346   -0.8798    0.1268 C   0  0  0  0  0  0  0  0  0  0  0  0
    0.5216    1.0617    0.3324 C   0  0  0  0  0  0  0  0  0  0  0  0
   -1.7035   -1.5529    1.1592 C   0  0  0  0  0  0  0  0  0  0  0  0
   -2.6119   -1.5015   -1.0788 C   0  0  0  0  0  0  0  0  0  0  0  0
    1.8275    0.7445   -0.2998 C   0  0  0  0  0  0  0  0  0  0  0  0
   -1.3390   -2.8874    0.9807 C   0  0  0  0  0  0  0  0  0  0  0  0
   -2.2475   -2.8360   -1.2574 C   0  0  0  0  0  0  0  0  0  0  0  0
    2.7630   -0.0107    0.3787 C   0  0  0  0  0  0  0  0  0  0  0  0
   -1.6110   -3.5290   -0.2277 C   0  0  0  0  0  0  0  0  0  0  0  0
    2.0606    1.2294   -1.5722 C   0  0  0  0  0  0  0  0  0  0  0  0
    3.9811   -0.2929   -0.2393 C   0  0  0  0  0  0  0  0  0  0  0  0
   -0.6583   -3.6280    2.0818 C   0  0  0  0  0  0  0  0  0  0  0  0
   -2.5376   -3.5219   -2.5496 C   0  0  0  0  0  0  0  0  0  0  0  0
    2.4945   -0.5288    1.7561 C   0  0  0  0  0  0  0  0  0  0  0  0
    3.2789    0.9472   -2.1902 C   0  0  0  0  0  0  0  0  0  0  0  0
    4.2392    0.1861   -1.5237 C   0  0  0  0  0  0  0  0  0  0  0  0
    5.8797   -0.3281    1.1924 C   0  0  0  0  0  0  0  0  0  0  0  0
   -4.1983    2.8488   -0.4198 H   0  0  0  0  0  0  0  0  0  0  0  0
   -3.1242    2.9868   -1.8133 H   0  0  0  0  0  0  0  0  0  0  0  0
   -3.4252    4.3869   -0.7747 H   0  0  0  0  0  0  0  0  0  0  0  0
   -0.5540    3.4880   -1.4349 H   0  0  0  0  0  0  0  0  0  0  0  0
    0.0570    3.5735    0.2478 H   0  0  0  0  0  0  0  0  0  0  0  0
   -1.0342    4.7796   -0.3638 H   0  0  0  0  0  0  0  0  0  0  0  0
   -1.5269    2.9346    2.2077 H   0  0  0  0  0  0  0  0  0  0  0  0
   -3.2638    2.8134    1.9256 H   0  0  0  0  0  0  0  0  0  0  0  0
   -2.4461    4.3509    1.6875 H   0  0  0  0  0  0  0  0  0  0  0  0
   -0.4981    1.0641   -1.5415 H   0  0  0  0  0  0  0  0  0  0  0  0
   -1.4974   -1.0487    2.0999 H   0  0  0  0  0  0  0  0  0  0  0  0
   -3.1059   -0.9562   -1.8788 H   0  0  0  0  0  0  0  0  0  0  0  0
   -1.3256   -4.5692   -0.3660 H   0  0  0  0  0  0  0  0  0  0  0  0
    1.3534    1.8501   -2.1123 H   0  0  0  0  0  0  0  0  0  0  0  0
   -1.3797   -4.2547    2.6154 H   0  0  0  0  0  0  0  0  0  0  0  0
    0.1405   -4.2643    1.6859 H   0  0  0  0  0  0  0  0  0  0  0  0
   -0.1965   -2.9432    2.8012 H   0  0  0  0  0  0  0  0  0  0  0  0
   -2.7225   -4.5906   -2.3967 H   0  0  0  0  0  0  0  0  0  0  0  0
   -3.4329   -3.1073   -3.0254 H   0  0  0  0  0  0  0  0  0  0  0  0
   -1.6915   -3.4062   -3.2342 H   0  0  0  0  0  0  0  0  0  0  0  0
    1.5141   -1.0126    1.8174 H   0  0  0  0  0  0  0  0  0  0  0  0
    3.2057   -1.3065    2.0542 H   0  0  0  0  0  0  0  0  0  0  0  0
    2.5725    0.2746    2.4955 H   0  0  0  0  0  0  0  0  0  0  0  0
    3.4831    1.3258   -3.1876 H   0  0  0  0  0  0  0  0  0  0  0  0
    5.1863   -0.0290   -2.0110 H   0  0  0  0  0  0  0  0  0  0  0  0
    5.3791    0.2600    1.9680 H   0  0  0  0  0  0  0  0  0  0  0  0
    6.4922    0.3260    0.5639 H   0  0  0  0  0  0  0  0  0  0  0  0
    6.5330   -1.0594    1.6761 H   0  0  0  0  0  0  0  0  0  0  0  0
  1 10  2  0  0  0  0
  2 12  2  0  0  0  0
  3 21  1  0  0  0  0
  3 27  1  0  0  0  0
  4  5  1  0  0  0  0
  4  6  1  0  0  0  0
  4 10  1  0  0  0  0
  5 12  1  0  0  0  0
  5 37  1  0  0  0  0
  6  7  1  0  0  0  0
  6  8  1  0  0  0  0
  6  9  1  0  0  0  0
  7 28  1  0  0  0  0
  7 29  1  0  0  0  0
  7 30  1  0  0  0  0
  8 31  1  0  0  0  0
  8 32  1  0  0  0  0
  8 33  1  0  0  0  0
  9 34  1  0  0  0  0
  9 35  1  0  0  0  0
  9 36  1  0  0  0  0
 10 11  1  0  0  0  0
 11 13  2  0  0  0  0
 11 14  1  0  0  0  0
 12 15  1  0  0  0  0
 13 16  1  0  0  0  0
 13 38  1  0  0  0  0
 14 17  2  0  0  0  0
 14 39  1  0  0  0  0
 15 18  2  0  0  0  0
 15 20  1  0  0  0  0
 16 19  2  0  0  0  0
 16 22  1  0  0  0  0
 17 19  1  0  0  0  0
 17 23  1  0  0  0  0
 18 21  1  0  0  0  0
 18 24  1  0  0  0  0
 19 40  1  0  0  0  0
 20 25  2  0  0  0  0
 20 41  1  0  0  0  0
 21 26  2  0  0  0  0
 22 42  1  0  0  0  0
 22 43  1  0  0  0  0
 22 44  1  0  0  0  0
 23 45  1  0  0  0  0
 23 46  1  0  0  0  0
 23 47  1  0  0  0  0
 24 48  1  0  0  0  0
 24 49  1  0  0  0  0
 24 50  1  0  0  0  0
 25 26  1  0  0  0  0
 25 51  1  0  0  0  0
 26 52  1  0  0  0  0
 27 53  1  0  0  0  0
 27 54  1  0  0  0  0
 27 55  1  0  0  0  0
M  END
> <PUBCHEM_COMPOUND_CID>
105010

> <PUBCHEM_CONFORMER_RMSD>
0.8

> <PUBCHEM_CONFORMER_DIVERSEORDER>
3
13
28
23
26
18
30
14
25
11
27
21
22
6
12
29
15
16
10
7
2
17
24
9
1
8
19
5
4
20

> <PUBCHEM_MMFF94_PARTIAL_CHARGES>
31
1 -0.57
10 0.54
11 0.09
12 0.54
13 -0.15
14 -0.15
15 0.09
16 -0.14
17 -0.14
18 -0.14
19 -0.15
2 -0.57
20 -0.15
21 0.08
22 0.14
23 0.14
24 0.14
25 -0.15
26 -0.15
27 0.28
3 -0.36
37 0.37
38 0.15
39 0.15
4 -0.36
40 0.15
41 0.15
5 -0.43
51 0.15
52 0.15
6 0.3

> <PUBCHEM_EFFECTIVE_ROTOR_COUNT>
7

> <PUBCHEM_PHARMACOPHORE_FEATURES>
7
1 1 acceptor
1 2 acceptor
1 3 acceptor
1 5 donor
4 6 7 8 9 hydrophobe
6 11 13 14 16 17 19 rings
6 15 18 20 21 25 26 rings

> <PUBCHEM_HEAVY_ATOM_COUNT>
27

> <PUBCHEM_ATOM_DEF_STEREO_COUNT>
0

> <PUBCHEM_ATOM_UDEF_STEREO_COUNT>
0

> <PUBCHEM_BOND_DEF_STEREO_COUNT>
0

> <PUBCHEM_BOND_UDEF_STEREO_COUNT>
0

> <PUBCHEM_ISOTOPIC_ATOM_COUNT>
0

> <PUBCHEM_COMPONENT_COUNT>
1

> <PUBCHEM_CACTVS_TAUTO_COUNT>
2

> <PUBCHEM_CONFORMER_ID>
00019A3200000003

> <PUBCHEM_MMFF94_ENERGY>
104.8149

> <PUBCHEM_FEATURE_SELFOVERLAP>
35.522

> <PUBCHEM_SHAPE_FINGERPRINT>
107951 10 17973476254460068639
11578080 2 17488187190914899777
11582403 64 15759850367715116177
12156800 1 16336322145405128423
12160290 23 18269012958350207801
12363563 72 18055066829074938598
12403259 327 14976628812009444863
12553582 1 18193002740301216427
12788726 201 18337963375593641525
13004483 165 18127688442787126287
13140716 1 18268153239131023993
133893 2 17328309048252064337
13583140 156 17845919768155526504
13681431 1 17547289364392400149
14114206 34 18188765192449468279
14251757 5 18263943161821463860
14279260 333 13769577126660460152
14659021 117 18196354017863331850
15463212 79 18261952947249729144
16120349 306 18043801005656465618
16752209 62 18336819819319058817
17349148 13 17313946476040849652
18785283 64 16751861434032488633
20554085 129 17839434727588514801
20775438 99 16539017487496022270
21315764 21 16735477937325472534
23559900 14 18058456401044655260
23598288 3 18113913649355586449
23728640 28 18410015420581497227
3411729 13 17761510097182796585
4017518 198 17909255889685998270
6287921 2 16473444199347724227
70251023 43 17478338985941186423
81228 2 18340768251489618353
90525 40 18189057495154737441

> <PUBCHEM_SHAPE_MULTIPOLES>
528.08
8.07
5.02
2.01
12.44
0.1
0.44
0.92
0.49
-7.11
0.03
0.3
1.18
-1.83

> <PUBCHEM_SHAPE_SELFOVERLAP>
1120.065

> <PUBCHEM_SHAPE_VOLUME>
298

> <PUBCHEM_COORDINATE_TYPE>
2
5
10

$$$$