134133476
  -OEChem-03242010103D

 50 53  0     1  0  0  0  0  0999 V2000
   -6.5406   -0.0542    1.6812 I   0  0  0  0  0  0  0  0  0  0  0  0
   -2.8157    2.5637   -1.3205 O   0  0  0  0  0  0  0  0  0  0  0  0
   -2.4604   -3.4336   -0.6447 O   0  0  0  0  0  0  0  0  0  0  0  0
   -5.3513    2.2249   -0.3175 O   0  0  0  0  0  0  0  0  0  0  0  0
   -0.6643   -2.0853   -0.1077 N   0  0  0  0  0  0  0  0  0  0  0  0
    0.6207   -1.7142   -0.3754 N   0  0  0  0  0  0  0  0  0  0  0  0
   -1.2243   -1.4093    1.0646 C   0  0  1  0  0  0  0  0  0  0  0  0
   -0.0117   -0.7254    1.6845 C   0  0  0  0  0  0  0  0  0  0  0  0
    1.0021   -0.9285    0.5855 C   0  0  0  0  0  0  0  0  0  0  0  0
   -2.3331   -0.4420    0.7006 C   0  0  0  0  0  0  0  0  0  0  0  0
    2.3390   -0.2973    0.6329 C   0  0  0  0  0  0  0  0  0  0  0  0
   -2.0697    0.6308   -0.1512 C   0  0  0  0  0  0  0  0  0  0  0  0
   -3.6163   -0.6246    1.2159 C   0  0  0  0  0  0  0  0  0  0  0  0
   -1.3156   -3.0376   -0.8684 C   0  0  0  0  0  0  0  0  0  0  0  0
    3.2478   -0.5110   -0.4040 C   0  0  0  0  0  0  0  0  0  0  0  0
    2.6898    0.5090    1.7117 C   0  0  0  0  0  0  0  0  0  0  0  0
   -3.0895    1.5210   -0.4874 C   0  0  0  0  0  0  0  0  0  0  0  0
    4.5212    0.0804   -0.3740 C   0  0  0  0  0  0  0  0  0  0  0  0
   -4.6361    0.2657    0.8797 C   0  0  0  0  0  0  0  0  0  0  0  0
    4.8779    0.9003    0.7231 C   0  0  0  0  0  0  0  0  0  0  0  0
   -4.3728    1.3385    0.0281 C   0  0  0  0  0  0  0  0  0  0  0  0
    3.9506    1.1046    1.7580 C   0  0  0  0  0  0  0  0  0  0  0  0
   -0.5259   -3.5899   -2.0297 C   0  0  0  0  0  0  0  0  0  0  0  0
    5.4485   -0.1239   -1.4087 C   0  0  0  0  0  0  0  0  0  0  0  0
    6.1514    1.4916    0.7531 C   0  0  0  0  0  0  0  0  0  0  0  0
    6.7094    0.4715   -1.3625 C   0  0  0  0  0  0  0  0  0  0  0  0
    7.0602    1.2777   -0.2837 C   0  0  0  0  0  0  0  0  0  0  0  0
   -1.4774    2.6748   -1.8009 C   0  0  0  0  0  0  0  0  0  0  0  0
   -6.1138    1.9224   -1.4829 C   0  0  0  0  0  0  0  0  0  0  0  0
   -1.6145   -2.1804    1.7405 H   0  0  0  0  0  0  0  0  0  0  0  0
    0.3278   -1.2652    2.5753 H   0  0  0  0  0  0  0  0  0  0  0  0
   -0.1654    0.3288    1.9279 H   0  0  0  0  0  0  0  0  0  0  0  0
   -1.0589    0.7284   -0.5291 H   0  0  0  0  0  0  0  0  0  0  0  0
   -3.8131   -1.4641    1.8788 H   0  0  0  0  0  0  0  0  0  0  0  0
    2.9769   -1.1406   -1.2497 H   0  0  0  0  0  0  0  0  0  0  0  0
    2.0116    0.6933    2.5391 H   0  0  0  0  0  0  0  0  0  0  0  0
    4.2043    1.7300    2.6114 H   0  0  0  0  0  0  0  0  0  0  0  0
    0.3718   -4.0972   -1.6655 H   0  0  0  0  0  0  0  0  0  0  0  0
   -0.2472   -2.7828   -2.7130 H   0  0  0  0  0  0  0  0  0  0  0  0
   -1.1375   -4.3130   -2.5771 H   0  0  0  0  0  0  0  0  0  0  0  0
    5.1962   -0.7501   -2.2620 H   0  0  0  0  0  0  0  0  0  0  0  0
    6.4472    2.1254    1.5866 H   0  0  0  0  0  0  0  0  0  0  0  0
    7.4173    0.3054   -2.1693 H   0  0  0  0  0  0  0  0  0  0  0  0
    8.0420    1.7409   -0.2483 H   0  0  0  0  0  0  0  0  0  0  0  0
   -1.4404    3.5583   -2.4468 H   0  0  0  0  0  0  0  0  0  0  0  0
   -1.1982    1.8171   -2.4224 H   0  0  0  0  0  0  0  0  0  0  0  0
   -0.7676    2.8500   -0.9850 H   0  0  0  0  0  0  0  0  0  0  0  0
   -7.0256    2.5257   -1.4626 H   0  0  0  0  0  0  0  0  0  0  0  0
   -6.3936    0.8651   -1.5280 H   0  0  0  0  0  0  0  0  0  0  0  0
   -5.5413    2.1873   -2.3772 H   0  0  0  0  0  0  0  0  0  0  0  0
  1 19  1  0  0  0  0
  2 17  1  0  0  0  0
  2 28  1  0  0  0  0
  3 14  2  0  0  0  0
  4 21  1  0  0  0  0
  4 29  1  0  0  0  0
  5  6  1  0  0  0  0
  5  7  1  0  0  0  0
  5 14  1  0  0  0  0
  6  9  2  0  0  0  0
  7  8  1  0  0  0  0
  7 10  1  0  0  0  0
  7 30  1  0  0  0  0
  8  9  1  0  0  0  0
  8 31  1  0  0  0  0
  8 32  1  0  0  0  0
  9 11  1  0  0  0  0
 10 12  2  0  0  0  0
 10 13  1  0  0  0  0
 11 15  2  0  0  0  0
 11 16  1  0  0  0  0
 12 17  1  0  0  0  0
 12 33  1  0  0  0  0
 13 19  2  0  0  0  0
 13 34  1  0  0  0  0
 14 23  1  0  0  0  0
 15 18  1  0  0  0  0
 15 35  1  0  0  0  0
 16 22  2  0  0  0  0
 16 36  1  0  0  0  0
 17 21  2  0  0  0  0
 18 20  1  0  0  0  0
 18 24  2  0  0  0  0
 19 21  1  0  0  0  0
 20 22  1  0  0  0  0
 20 25  2  0  0  0  0
 22 37  1  0  0  0  0
 23 38  1  0  0  0  0
 23 39  1  0  0  0  0
 23 40  1  0  0  0  0
 24 26  1  0  0  0  0
 24 41  1  0  0  0  0
 25 27  1  0  0  0  0
 25 42  1  0  0  0  0
 26 27  2  0  0  0  0
 26 43  1  0  0  0  0
 27 44  1  0  0  0  0
 28 45  1  0  0  0  0
 28 46  1  0  0  0  0
 28 47  1  0  0  0  0
 29 48  1  0  0  0  0
 29 49  1  0  0  0  0
 29 50  1  0  0  0  0
M  END
> <PUBCHEM_COMPOUND_CID>
134133476

> <PUBCHEM_CONFORMER_RMSD>
0.8

> <PUBCHEM_CONFORMER_DIVERSEORDER>
2
39
95
110
7
35
97
58
59
55
73
107
104
81
46
60
34
94
90
50
65
40
54
111
103
8
71
82
4
116
5
88
36
41
27
113
91
53
33
64
96
45
89
11
87
84
112
98
43
70
93
37
6
14
105
63
69
80
100
75
106
92
115
52
38
83
51
32
78
101
44
61
23
76
99
47
17
48
108
79
85
114
67
16
15
25
12
72
77
28
74
109
66
49
102
20
86
22
56
29
31
68
62
18
1
30
57
21
24
19
42
3
13
26
9
10

> <PUBCHEM_MMFF94_PARTIAL_CHARGES>
36
1 -0.08
10 -0.14
11 0.09
12 -0.15
13 -0.15
14 0.57
15 -0.15
16 -0.15
17 0.08
19 0.08
2 -0.36
21 0.08
22 -0.15
23 0.06
24 -0.15
25 -0.15
26 -0.15
27 -0.15
28 0.28
29 0.28
3 -0.57
33 0.15
34 0.15
35 0.15
36 0.15
37 0.15
4 -0.36
41 0.15
42 0.15
43 0.15
44 0.15
5 -0.3
6 -0.51
7 0.44
8 0.06
9 0.3

> <PUBCHEM_EFFECTIVE_ROTOR_COUNT>
5.6

> <PUBCHEM_PHARMACOPHORE_FEATURES>
9
1 1 hydrophobe
1 2 acceptor
1 3 acceptor
1 4 acceptor
1 6 acceptor
5 5 6 7 8 9 rings
6 10 12 13 17 19 21 rings
6 11 15 16 18 20 22 rings
6 18 20 24 25 26 27 rings

> <PUBCHEM_HEAVY_ATOM_COUNT>
29

> <PUBCHEM_ATOM_DEF_STEREO_COUNT>
0

> <PUBCHEM_ATOM_UDEF_STEREO_COUNT>
1

> <PUBCHEM_BOND_DEF_STEREO_COUNT>
0

> <PUBCHEM_BOND_UDEF_STEREO_COUNT>
0

> <PUBCHEM_ISOTOPIC_ATOM_COUNT>
0

> <PUBCHEM_COMPONENT_COUNT>
1

> <PUBCHEM_CACTVS_TAUTO_COUNT>
2

> <PUBCHEM_CONFORMER_ID>
07FEB6E400000002

> <PUBCHEM_MMFF94_ENERGY>
106.1209

> <PUBCHEM_FEATURE_SELFOVERLAP>
45.705

> <PUBCHEM_SHAPE_FINGERPRINT>
10006869 2 17823963550823385300
10165383 225 18201730543712592627
10369192 42 18272097084793566385
105312 117 18342457045193521646
10670039 82 17894916192253655076
10906281 52 18043807586143039653
11488393 25 17982739575710802119
11578080 2 17916017057383657352
11595378 159 17458335334836860216
11796584 16 11600002124561713201
11991303 11 18342459282777122063
12236239 1 16588024610883893144
12516196 113 11386371460602192907
12596602 18 16081089272754784888
12760667 363 8502658099535037299
12969540 114 18201430363994850611
13402501 40 18408886230714284200
13911987 19 18201716228739523697
14279260 333 17059225726779302102
14294032 229 18409729569402091005
14341114 328 16950283974983019145
14856354 85 17459199623764123978
15183329 4 16343985784516619048
15238133 3 17386010581154018916
15575132 122 18187638055908776637
15961568 22 17968100776613957237
17980427 23 17675929781390546525
19958102 18 18201997763698597054
21033648 29 18271800242081213888
21756936 100 17967531311442736362
22122407 14 16950578682854526956
22393880 68 18059574745977864986
23198884 109 17560808727117306545
23559900 14 17679592130021760563
24771293 8 18261116215540213781
25019877 29 18060429031762474095
2838139 119 18336536144997365248
3004659 81 13038901136355168360
3729539 64 17914910746574952782
392239 28 16516271611584450233
4015057 19 16200147755006977730
44249763 50 18270670000484673800
44802255 64 18337967769867970702
508706 21 18270109236131191750
5252454 2 18341604915218583362
5718773 13 9366758777747121465
57527293 21 18264767663448511843
57527585 21 18050542098873441781
59755656 520 17775010102384519499
613672 6 7997967985735577449
6327066 14 18409161087283106821
6608658 132 18187631514530965013
6669772 16 18130796615967100190
7808743 9 18334009501952855560

> <PUBCHEM_SHAPE_MULTIPOLES>
581.17
16.95
3.11
1.86
11.7
2.16
0.09
-10.89
-0.28
-3.22
2.3
-0.53
-0.09
1.78

> <PUBCHEM_SHAPE_SELFOVERLAP>
1250.913

> <PUBCHEM_SHAPE_VOLUME>
326.5

> <PUBCHEM_COORDINATE_TYPE>
2
5
10

$$$$