56945198
  -OEChem-03242010093D

 50 52  0     0  0  0  0  0  0999 V2000
   -6.2972   -2.3589    0.3630 O   0  0  0  0  0  0  0  0  0  0  0  0
   -5.6318    2.3540   -0.1703 O   0  0  0  0  0  0  0  0  0  0  0  0
   -7.3327    0.2073    0.2418 O   0  0  0  0  0  0  0  0  0  0  0  0
   -1.4232   -1.7360   -0.7805 O   0  0  0  0  0  0  0  0  0  0  0  0
    8.8210   -1.4985    0.2933 O   0  5  0  0  0  0  0  0  0  0  0  0
    6.9747   -2.6687    0.4954 O   0  0  0  0  0  0  0  0  0  0  0  0
   -0.9721    0.4288    0.0191 N   0  0  0  0  0  0  0  0  0  0  0  0
    7.5690   -1.5790    0.3125 N   0  3  0  0  0  0  0  0  0  0  0  0
    3.2079    0.6248   -0.0324 C   0  0  0  0  0  0  0  0  0  0  0  0
    4.6529    0.6926   -0.0501 C   0  0  0  0  0  0  0  0  0  0  0  0
    0.4214    0.4941    0.0019 C   0  0  0  0  0  0  0  0  0  0  0  0
   -3.2508   -0.4190   -0.1999 C   0  0  0  0  0  0  0  0  0  0  0  0
    2.5589   -0.5374   -0.4497 C   0  0  0  0  0  0  0  0  0  0  0  0
    2.4635    1.7216    0.4018 C   0  0  0  0  0  0  0  0  0  0  0  0
    1.1658   -0.6027   -0.4325 C   0  0  0  0  0  0  0  0  0  0  0  0
    1.0703    1.6564    0.4190 C   0  0  0  0  0  0  0  0  0  0  0  0
   -1.7901   -0.6442   -0.3594 C   0  0  0  0  0  0  0  0  0  0  0  0
   -3.7684    0.8748   -0.2596 C   0  0  0  0  0  0  0  0  0  0  0  0
   -4.1042   -1.5025    0.0088 C   0  0  0  0  0  0  0  0  0  0  0  0
   -5.4750   -1.2922    0.1577 C   0  0  0  0  0  0  0  0  0  0  0  0
   -5.1393    1.0852   -0.1108 C   0  0  0  0  0  0  0  0  0  0  0  0
   -5.9925    0.0017    0.0980 C   0  0  0  0  0  0  0  0  0  0  0  0
    5.4076   -0.4653    0.1382 C   0  0  0  0  0  0  0  0  0  0  0  0
    5.2914    1.9156   -0.2554 C   0  0  0  0  0  0  0  0  0  0  0  0
    6.8008   -0.4000    0.1214 C   0  0  0  0  0  0  0  0  0  0  0  0
    6.6845    1.9809   -0.2721 C   0  0  0  0  0  0  0  0  0  0  0  0
    7.4393    0.8231   -0.0836 C   0  0  0  0  0  0  0  0  0  0  0  0
   -6.8450   -2.9869   -0.7946 C   0  0  0  0  0  0  0  0  0  0  0  0
   -4.6916    3.4044   -0.3868 C   0  0  0  0  0  0  0  0  0  0  0  0
   -7.8149    0.4260    1.5657 C   0  0  0  0  0  0  0  0  0  0  0  0
    3.0950   -1.4037   -0.8276 H   0  0  0  0  0  0  0  0  0  0  0  0
    2.9252    2.6359    0.7645 H   0  0  0  0  0  0  0  0  0  0  0  0
    0.7374   -1.5330   -0.7779 H   0  0  0  0  0  0  0  0  0  0  0  0
    0.5028    2.5164    0.7658 H   0  0  0  0  0  0  0  0  0  0  0  0
   -1.4131    1.2594    0.4029 H   0  0  0  0  0  0  0  0  0  0  0  0
   -3.0925    1.6916   -0.4758 H   0  0  0  0  0  0  0  0  0  0  0  0
   -3.7136   -2.5159    0.0637 H   0  0  0  0  0  0  0  0  0  0  0  0
    4.9195   -1.4164    0.3340 H   0  0  0  0  0  0  0  0  0  0  0  0
    4.7461    2.8377   -0.4372 H   0  0  0  0  0  0  0  0  0  0  0  0
    7.1818    2.9320   -0.4389 H   0  0  0  0  0  0  0  0  0  0  0  0
    8.5225    0.9116   -0.1046 H   0  0  0  0  0  0  0  0  0  0  0  0
   -7.4546   -2.2791   -1.3652 H   0  0  0  0  0  0  0  0  0  0  0  0
   -6.0467   -3.3898   -1.4260 H   0  0  0  0  0  0  0  0  0  0  0  0
   -7.4825   -3.8126   -0.4671 H   0  0  0  0  0  0  0  0  0  0  0  0
   -3.9674    3.4763    0.4320 H   0  0  0  0  0  0  0  0  0  0  0  0
   -4.2109    3.3208   -1.3675 H   0  0  0  0  0  0  0  0  0  0  0  0
   -5.2555    4.3432   -0.3916 H   0  0  0  0  0  0  0  0  0  0  0  0
   -8.8971    0.5742    1.5157 H   0  0  0  0  0  0  0  0  0  0  0  0
   -7.3591    1.3218    1.9991 H   0  0  0  0  0  0  0  0  0  0  0  0
   -7.6102   -0.4431    2.1988 H   0  0  0  0  0  0  0  0  0  0  0  0
  1 20  1  0  0  0  0
  1 28  1  0  0  0  0
  2 21  1  0  0  0  0
  2 29  1  0  0  0  0
  3 22  1  0  0  0  0
  3 30  1  0  0  0  0
  4 17  2  0  0  0  0
  5  8  1  0  0  0  0
  6  8  2  0  0  0  0
  7 11  1  0  0  0  0
  7 17  1  0  0  0  0
  7 35  1  0  0  0  0
  8 25  1  0  0  0  0
  9 10  1  0  0  0  0
  9 13  2  0  0  0  0
  9 14  1  0  0  0  0
 10 23  2  0  0  0  0
 10 24  1  0  0  0  0
 11 15  2  0  0  0  0
 11 16  1  0  0  0  0
 12 17  1  0  0  0  0
 12 18  2  0  0  0  0
 12 19  1  0  0  0  0
 13 15  1  0  0  0  0
 13 31  1  0  0  0  0
 14 16  2  0  0  0  0
 14 32  1  0  0  0  0
 15 33  1  0  0  0  0
 16 34  1  0  0  0  0
 18 21  1  0  0  0  0
 18 36  1  0  0  0  0
 19 20  2  0  0  0  0
 19 37  1  0  0  0  0
 20 22  1  0  0  0  0
 21 22  2  0  0  0  0
 23 25  1  0  0  0  0
 23 38  1  0  0  0  0
 24 26  2  0  0  0  0
 24 39  1  0  0  0  0
 25 27  2  0  0  0  0
 26 27  1  0  0  0  0
 26 40  1  0  0  0  0
 27 41  1  0  0  0  0
 28 42  1  0  0  0  0
 28 43  1  0  0  0  0
 28 44  1  0  0  0  0
 29 45  1  0  0  0  0
 29 46  1  0  0  0  0
 29 47  1  0  0  0  0
 30 48  1  0  0  0  0
 30 49  1  0  0  0  0
 30 50  1  0  0  0  0
M  CHG  2   5  -1   8   1
M  END
> <PUBCHEM_COMPOUND_CID>
56945198

> <PUBCHEM_CONFORMER_RMSD>
1

> <PUBCHEM_CONFORMER_DIVERSEORDER>
1
6
4
2
5
3

> <PUBCHEM_MMFF94_PARTIAL_CHARGES>
39
1 -0.36
11 0.12
12 0.09
13 -0.15
14 -0.15
15 -0.15
16 -0.15
17 0.54
18 -0.15
19 -0.15
2 -0.36
20 0.08
21 0.08
22 0.08
23 -0.15
24 -0.15
25 0.13
26 -0.15
27 -0.15
28 0.28
29 0.28
3 -0.36
30 0.28
31 0.15
32 0.15
33 0.15
34 0.15
35 0.37
36 0.15
37 0.15
38 0.15
39 0.15
4 -0.57
40 0.15
41 0.15
5 -0.52
6 -0.52
7 -0.55
8 0.91

> <PUBCHEM_EFFECTIVE_ROTOR_COUNT>
8

> <PUBCHEM_PHARMACOPHORE_FEATURES>
11
1 1 acceptor
1 2 acceptor
1 3 acceptor
1 4 acceptor
1 5 acceptor
1 5 anion
1 6 acceptor
1 7 donor
6 10 23 24 25 26 27 rings
6 12 18 19 20 21 22 rings
6 9 11 13 14 15 16 rings

> <PUBCHEM_HEAVY_ATOM_COUNT>
30

> <PUBCHEM_ATOM_DEF_STEREO_COUNT>
0

> <PUBCHEM_ATOM_UDEF_STEREO_COUNT>
0

> <PUBCHEM_BOND_DEF_STEREO_COUNT>
0

> <PUBCHEM_BOND_UDEF_STEREO_COUNT>
0

> <PUBCHEM_ISOTOPIC_ATOM_COUNT>
0

> <PUBCHEM_COMPONENT_COUNT>
1

> <PUBCHEM_CACTVS_TAUTO_COUNT>
2

> <PUBCHEM_CONFORMER_ID>
0364EA2E00000001

> <PUBCHEM_MMFF94_ENERGY>
134.9974

> <PUBCHEM_FEATURE_SELFOVERLAP>
55.915

> <PUBCHEM_SHAPE_FINGERPRINT>
10 15 18335426772762870849
100830 39 18409728422456659517
10299344 5 18408042927065326942
10580692 12 18410011005344450290
11315181 36 18186801418223278477
11524674 6 16845576456610473567
11719270 70 18060138722270228046
12082328 90 18411416232950038647
12166972 35 18337392746128672000
12236239 1 18408322198829465684
13533116 47 14045478717511006524
13885169 127 18408321068889128408
14251764 18 18340769333393849110
14856354 85 15430044253345934681
14933364 13 18409449206595362036
15021287 119 17749395875230033941
15152005 290 18192710039341271869
15183329 4 18334570231028331448
15461852 350 18131344237946366653
1577012 14 18341331179931072060
18608769 82 18341614849941928361
19611394 137 18042137608199821577
19841028 212 18191583061550359274
20281389 69 18411136948243566624
21130935 74 18341894129753111810
21315763 28 18409728482422047764
21792934 111 18201991124095680888
21792961 116 18130788923627385600
23522609 53 18124063296910870385
23536379 177 18335420175476865160
23569943 247 16951952965621096834
25025965 108 18129368458338798719
3004659 81 18260545620243454936
4073 2 17968662743515486498
4098825 35 18335419045673567648
4339292 15 16629953456840179799
44389302 135 18271801273818383106
45377200 153 15213317330009111728
59755656 520 18041275560460178563
9831232 110 18270405976181958470

> <PUBCHEM_SHAPE_MULTIPOLES>
572.21
27.33
2.81
0.78
14.29
0.12
0.1
-6.95
3.65
-2.15
-0.28
-0.75
-0.02
-0.99

> <PUBCHEM_SHAPE_SELFOVERLAP>
1243.227

> <PUBCHEM_SHAPE_VOLUME>
313.3

> <PUBCHEM_COORDINATE_TYPE>
2
5
10

$$$$