118708522
  -OEChem-03242010103D

 52 54  0     0  0  0  0  0  0999 V2000
   -0.5217   -1.6959    1.8133 F   0  0  0  0  0  0  0  0  0  0  0  0
    3.6786    2.6408    0.1275 O   0  0  0  0  0  0  0  0  0  0  0  0
    5.7135   -2.4581   -0.3944 O   0  0  0  0  0  0  0  0  0  0  0  0
    7.3541   -0.3676    0.4207 O   0  0  0  0  0  0  0  0  0  0  0  0
    1.6346    1.3683   -1.5960 O   0  0  0  0  0  0  0  0  0  0  0  0
   -8.7682    0.0721   -0.2466 O   0  0  0  0  0  0  0  0  0  0  0  0
    1.0056   -0.1694    0.0680 N   0  0  0  0  0  0  0  0  0  0  0  0
   -3.1757   -0.0700   -0.0651 C   0  0  0  0  0  0  0  0  0  0  0  0
   -0.3883   -0.1376    0.0253 C   0  0  0  0  0  0  0  0  0  0  0  0
    3.3466    0.3275   -0.4140 C   0  0  0  0  0  0  0  0  0  0  0  0
   -4.6210   -0.0349   -0.1125 C   0  0  0  0  0  0  0  0  0  0  0  0
   -2.5276   -0.8799    0.8675 C   0  0  0  0  0  0  0  0  0  0  0  0
   -2.4300    0.7062   -0.9524 C   0  0  0  0  0  0  0  0  0  0  0  0
    4.1702    1.3766   -0.0051 C   0  0  0  0  0  0  0  0  0  0  0  0
   -1.1339   -0.9138    0.9126 C   0  0  0  0  0  0  0  0  0  0  0  0
   -1.0364    0.6723   -0.9073 C   0  0  0  0  0  0  0  0  0  0  0  0
    1.9098    0.5590   -0.7167 C   0  0  0  0  0  0  0  0  0  0  0  0
    3.8691   -0.9592   -0.5435 C   0  0  0  0  0  0  0  0  0  0  0  0
    5.2149   -1.1970   -0.2643 C   0  0  0  0  0  0  0  0  0  0  0  0
    6.0383   -0.1479    0.1447 C   0  0  0  0  0  0  0  0  0  0  0  0
    5.5160    1.1389    0.2742 C   0  0  0  0  0  0  0  0  0  0  0  0
   -5.3621   -0.2478    1.0499 C   0  0  0  0  0  0  0  0  0  0  0  0
   -5.2738    0.2133   -1.3201 C   0  0  0  0  0  0  0  0  0  0  0  0
   -6.7557   -0.2121    1.0050 C   0  0  0  0  0  0  0  0  0  0  0  0
   -6.6674    0.2489   -1.3651 C   0  0  0  0  0  0  0  0  0  0  0  0
   -7.4084    0.0363   -0.2025 C   0  0  0  0  0  0  0  0  0  0  0  0
    3.1511    2.9996    1.4029 C   0  0  0  0  0  0  0  0  0  0  0  0
    4.8053   -3.4734   -0.8173 C   0  0  0  0  0  0  0  0  0  0  0  0
    8.1264    0.7587    0.8326 C   0  0  0  0  0  0  0  0  0  0  0  0
   -9.4636   -0.1538    0.9788 C   0  0  0  0  0  0  0  0  0  0  0  0
   -3.0652   -1.5233    1.5584 H   0  0  0  0  0  0  0  0  0  0  0  0
   -2.8916    1.3739   -1.6748 H   0  0  0  0  0  0  0  0  0  0  0  0
   -0.5312    1.3026   -1.6252 H   0  0  0  0  0  0  0  0  0  0  0  0
    1.4011   -0.7884    0.7729 H   0  0  0  0  0  0  0  0  0  0  0  0
    3.1851   -1.7349   -0.8717 H   0  0  0  0  0  0  0  0  0  0  0  0
    6.1026    1.9966    0.5862 H   0  0  0  0  0  0  0  0  0  0  0  0
   -4.8966   -0.4137    2.0177 H   0  0  0  0  0  0  0  0  0  0  0  0
   -4.7402    0.3542   -2.2560 H   0  0  0  0  0  0  0  0  0  0  0  0
   -7.2696   -0.3786    1.9456 H   0  0  0  0  0  0  0  0  0  0  0  0
   -7.1710    0.4362   -2.3096 H   0  0  0  0  0  0  0  0  0  0  0  0
    2.7785    4.0259    1.3426 H   0  0  0  0  0  0  0  0  0  0  0  0
    3.9341    2.9562    2.1665 H   0  0  0  0  0  0  0  0  0  0  0  0
    2.3207    2.3426    1.6796 H   0  0  0  0  0  0  0  0  0  0  0  0
    4.0007   -3.6247   -0.0895 H   0  0  0  0  0  0  0  0  0  0  0  0
    4.4255   -3.2807   -1.8265 H   0  0  0  0  0  0  0  0  0  0  0  0
    5.3698   -4.4105   -0.8648 H   0  0  0  0  0  0  0  0  0  0  0  0
    9.1464    0.4020    1.0099 H   0  0  0  0  0  0  0  0  0  0  0  0
    7.7652    1.1709    1.7810 H   0  0  0  0  0  0  0  0  0  0  0  0
    8.1878    1.5164    0.0440 H   0  0  0  0  0  0  0  0  0  0  0  0
  -10.5344   -0.0915    0.7589 H   0  0  0  0  0  0  0  0  0  0  0  0
   -9.2428    0.6254    1.7161 H   0  0  0  0  0  0  0  0  0  0  0  0
   -9.2754   -1.1599    1.3687 H   0  0  0  0  0  0  0  0  0  0  0  0
  1 15  1  0  0  0  0
  2 14  1  0  0  0  0
  2 27  1  0  0  0  0
  3 19  1  0  0  0  0
  3 28  1  0  0  0  0
  4 20  1  0  0  0  0
  4 29  1  0  0  0  0
  5 17  2  0  0  0  0
  6 26  1  0  0  0  0
  6 30  1  0  0  0  0
  7  9  1  0  0  0  0
  7 17  1  0  0  0  0
  7 34  1  0  0  0  0
  8 11  1  0  0  0  0
  8 12  2  0  0  0  0
  8 13  1  0  0  0  0
  9 15  2  0  0  0  0
  9 16  1  0  0  0  0
 10 14  1  0  0  0  0
 10 17  1  0  0  0  0
 10 18  2  0  0  0  0
 11 22  2  0  0  0  0
 11 23  1  0  0  0  0
 12 15  1  0  0  0  0
 12 31  1  0  0  0  0
 13 16  2  0  0  0  0
 13 32  1  0  0  0  0
 14 21  2  0  0  0  0
 16 33  1  0  0  0  0
 18 19  1  0  0  0  0
 18 35  1  0  0  0  0
 19 20  2  0  0  0  0
 20 21  1  0  0  0  0
 21 36  1  0  0  0  0
 22 24  1  0  0  0  0
 22 37  1  0  0  0  0
 23 25  2  0  0  0  0
 23 38  1  0  0  0  0
 24 26  2  0  0  0  0
 24 39  1  0  0  0  0
 25 26  1  0  0  0  0
 25 40  1  0  0  0  0
 27 41  1  0  0  0  0
 27 42  1  0  0  0  0
 27 43  1  0  0  0  0
 28 44  1  0  0  0  0
 28 45  1  0  0  0  0
 28 46  1  0  0  0  0
 29 47  1  0  0  0  0
 29 48  1  0  0  0  0
 29 49  1  0  0  0  0
 30 50  1  0  0  0  0
 30 51  1  0  0  0  0
 30 52  1  0  0  0  0
M  END
> <PUBCHEM_COMPOUND_CID>
118708522

> <PUBCHEM_CONFORMER_RMSD>
1

> <PUBCHEM_CONFORMER_DIVERSEORDER>
1
8
11
7
5
3
9
10
2
4
6

> <PUBCHEM_MMFF94_PARTIAL_CHARGES>
38
1 -0.19
10 0.09
12 -0.15
13 -0.15
14 0.08
15 0.19
16 -0.15
17 0.54
18 -0.15
19 0.08
2 -0.36
20 0.08
21 -0.15
22 -0.15
23 -0.15
24 -0.15
25 -0.15
26 0.08
27 0.28
28 0.28
29 0.28
3 -0.36
30 0.28
31 0.15
32 0.15
33 0.15
34 0.37
35 0.15
36 0.15
37 0.15
38 0.15
39 0.15
4 -0.36
40 0.15
5 -0.57
6 -0.36
7 -0.55
9 0.12

> <PUBCHEM_EFFECTIVE_ROTOR_COUNT>
8

> <PUBCHEM_PHARMACOPHORE_FEATURES>
9
1 2 acceptor
1 3 acceptor
1 4 acceptor
1 5 acceptor
1 6 acceptor
1 7 donor
6 10 14 18 19 20 21 rings
6 11 22 23 24 25 26 rings
6 8 9 12 13 15 16 rings

> <PUBCHEM_HEAVY_ATOM_COUNT>
30

> <PUBCHEM_ATOM_DEF_STEREO_COUNT>
0

> <PUBCHEM_ATOM_UDEF_STEREO_COUNT>
0

> <PUBCHEM_BOND_DEF_STEREO_COUNT>
0

> <PUBCHEM_BOND_UDEF_STEREO_COUNT>
0

> <PUBCHEM_ISOTOPIC_ATOM_COUNT>
0

> <PUBCHEM_COMPONENT_COUNT>
1

> <PUBCHEM_CACTVS_TAUTO_COUNT>
5

> <PUBCHEM_CONFORMER_ID>
0713592A00000001

> <PUBCHEM_MMFF94_ENERGY>
136.2744

> <PUBCHEM_FEATURE_SELFOVERLAP>
45.679

> <PUBCHEM_SHAPE_FINGERPRINT>
10162869 55 18131340951621112661
10299344 5 17632576050655337127
10951579 204 17532658914506465573
11456790 92 18272094898618595801
12107698 1 17989486320571080881
12236239 1 16702303447085712990
12741549 16 18113610184996380700
13533116 47 18342176657112250070
13617811 41 16443069374301958630
13835254 42 17845375449849935336
14170010 4 18411981365068566964
14251764 18 17775567541588678488
14251764 46 17821728342868959824
15183329 4 18343866614784043107
15328684 2 16773242764747794043
15419008 47 18113329808729405853
15439362 3 13624969494709521630
18608769 82 17458345264495222203
20157964 124 18343302574367949006
21033648 29 18189888906629472400
21150785 3 8286201643653597017
21267235 1 17240202131516294692
21344244 78 17774431686765172642
21781051 124 16443646652635343243
22956985 138 15432256363113741634
23559900 14 18187927321918861476
23569943 247 17899697856074182627
249057 25 17703802422440120329
249057 3 18201155537437655718
3004659 81 16225768531680582821
335352 9 17603307076308239799
3383291 50 17748831825933523787
4073 2 18263083373930886314
4093350 32 18272086063296003382
4325135 7 15698000742998597633
4625314 4 8502652606293172665
59755656 215 17603865572517900427

> <PUBCHEM_SHAPE_MULTIPOLES>
575.78
25.86
2.14
1.26
27.01
0.49
0.04
1.52
3.31
-5.93
0.15
1.15
-0.08
1.46

> <PUBCHEM_SHAPE_SELFOVERLAP>
1248.766

> <PUBCHEM_SHAPE_VOLUME>
317.1

> <PUBCHEM_COORDINATE_TYPE>
2
5
10

$$$$