24178402
  -OEChem-03242010103D

 60 63  0     1  0  0  0  0  0999 V2000
   -6.5740    1.6565    0.7858 O   0  0  0  0  0  0  0  0  0  0  0  0
    6.3509    0.4580   -1.6627 O   0  0  0  0  0  0  0  0  0  0  0  0
    6.3199    2.0354    0.6232 O   0  0  0  0  0  0  0  0  0  0  0  0
    0.9895   -1.5311    0.5146 N   0  0  1  0  0  0  0  0  0  0  0  0
    1.3365   -1.3532    1.9299 C   0  0  0  0  0  0  0  0  0  0  0  0
    2.2064   -1.7668   -0.2823 C   0  0  0  0  0  0  0  0  0  0  0  0
    0.0483   -2.6378    0.3460 C   0  0  0  0  0  0  0  0  0  0  0  0
    2.1523   -0.0686    2.1085 C   0  0  0  0  0  0  0  0  0  0  0  0
    3.2833   -0.7319   -0.0499 C   0  0  0  0  0  0  0  0  0  0  0  0
    3.2811    0.0504    1.1178 C   0  0  0  0  0  0  0  0  0  0  0  0
   -0.6927   -2.5049   -0.9839 C   0  0  0  0  0  0  0  0  0  0  0  0
   -2.7487   -1.1089   -0.6111 C   0  0  0  0  0  0  0  0  0  0  0  0
   -3.4410   -2.2866    0.0329 C   0  0  0  0  0  0  0  0  0  0  0  0
   -4.1505   -1.8555    1.3101 C   0  0  0  0  0  0  0  0  0  0  0  0
   -5.2076   -0.8018    0.9989 C   0  0  0  0  0  0  0  0  0  0  0  0
   -3.5228    0.1610   -0.6694 C   0  0  0  0  0  0  0  0  0  0  0  0
   -4.6884    0.3096    0.1167 C   0  0  0  0  0  0  0  0  0  0  0  0
   -1.4804   -1.2285   -1.0390 C   0  0  0  0  0  0  0  0  0  0  0  0
    4.3292   -0.5927   -0.9722 C   0  0  0  0  0  0  0  0  0  0  0  0
    4.3029    0.9853    1.3277 C   0  0  0  0  0  0  0  0  0  0  0  0
   -5.4336    1.5001    0.0517 C   0  0  0  0  0  0  0  0  0  0  0  0
    5.3473    0.3342   -0.7496 C   0  0  0  0  0  0  0  0  0  0  0  0
   -3.1454    1.2292   -1.5038 C   0  0  0  0  0  0  0  0  0  0  0  0
    5.3330    1.1239    0.3979 C   0  0  0  0  0  0  0  0  0  0  0  0
   -5.0329    2.5469   -0.7730 C   0  0  0  0  0  0  0  0  0  0  0  0
   -3.8902    2.4106   -1.5510 C   0  0  0  0  0  0  0  0  0  0  0  0
   -7.7956    1.2508    0.1744 C   0  0  0  0  0  0  0  0  0  0  0  0
    6.2914   -0.3874   -2.8097 C   0  0  0  0  0  0  0  0  0  0  0  0
    6.2314    2.8038    1.8215 C   0  0  0  0  0  0  0  0  0  0  0  0
    1.9000   -2.2185    2.3047 H   0  0  0  0  0  0  0  0  0  0  0  0
    0.4328   -1.2627    2.5451 H   0  0  0  0  0  0  0  0  0  0  0  0
    2.6391   -2.7508   -0.0570 H   0  0  0  0  0  0  0  0  0  0  0  0
    1.9542   -1.7426   -1.3481 H   0  0  0  0  0  0  0  0  0  0  0  0
    0.5518   -3.6113    0.4036 H   0  0  0  0  0  0  0  0  0  0  0  0
   -0.6912   -2.6311    1.1569 H   0  0  0  0  0  0  0  0  0  0  0  0
    1.4956    0.8018    1.9821 H   0  0  0  0  0  0  0  0  0  0  0  0
    2.5492   -0.0430    3.1304 H   0  0  0  0  0  0  0  0  0  0  0  0
   -0.0002   -2.5217   -1.8336 H   0  0  0  0  0  0  0  0  0  0  0  0
   -1.3266   -3.3832   -1.1488 H   0  0  0  0  0  0  0  0  0  0  0  0
   -2.7755   -3.1080    0.3054 H   0  0  0  0  0  0  0  0  0  0  0  0
   -4.1694   -2.7017   -0.6760 H   0  0  0  0  0  0  0  0  0  0  0  0
   -4.6243   -2.7197    1.7898 H   0  0  0  0  0  0  0  0  0  0  0  0
   -3.4193   -1.4534    2.0238 H   0  0  0  0  0  0  0  0  0  0  0  0
   -6.0497   -1.2842    0.4881 H   0  0  0  0  0  0  0  0  0  0  0  0
   -5.5758   -0.3981    1.9494 H   0  0  0  0  0  0  0  0  0  0  0  0
   -0.9443   -0.3806   -1.4550 H   0  0  0  0  0  0  0  0  0  0  0  0
    4.2912   -1.2389   -1.8432 H   0  0  0  0  0  0  0  0  0  0  0  0
    4.2353    1.5751    2.2361 H   0  0  0  0  0  0  0  0  0  0  0  0
   -2.2732    1.1665   -2.1490 H   0  0  0  0  0  0  0  0  0  0  0  0
   -5.6099    3.4662   -0.8197 H   0  0  0  0  0  0  0  0  0  0  0  0
   -3.5779    3.2208   -2.2037 H   0  0  0  0  0  0  0  0  0  0  0  0
   -8.0482    1.9292   -0.6466 H   0  0  0  0  0  0  0  0  0  0  0  0
   -7.7365    0.2240   -0.1982 H   0  0  0  0  0  0  0  0  0  0  0  0
   -8.5883    1.3038    0.9258 H   0  0  0  0  0  0  0  0  0  0  0  0
    6.3705   -1.4452   -2.5365 H   0  0  0  0  0  0  0  0  0  0  0  0
    5.4065   -0.1783   -3.4206 H   0  0  0  0  0  0  0  0  0  0  0  0
    7.1650   -0.1535   -3.4273 H   0  0  0  0  0  0  0  0  0  0  0  0
    5.3384    3.4379    1.8296 H   0  0  0  0  0  0  0  0  0  0  0  0
    6.3035    2.1716    2.7131 H   0  0  0  0  0  0  0  0  0  0  0  0
    7.0966    3.4748    1.8381 H   0  0  0  0  0  0  0  0  0  0  0  0
  1 21  1  0  0  0  0
  1 27  1  0  0  0  0
  2 22  1  0  0  0  0
  2 28  1  0  0  0  0
  3 24  1  0  0  0  0
  3 29  1  0  0  0  0
  4  5  1  0  0  0  0
  4  6  1  0  0  0  0
  4  7  1  0  0  0  0
  5  8  1  0  0  0  0
  5 30  1  0  0  0  0
  5 31  1  0  0  0  0
  6  9  1  0  0  0  0
  6 32  1  0  0  0  0
  6 33  1  0  0  0  0
  7 11  1  0  0  0  0
  7 34  1  0  0  0  0
  7 35  1  0  0  0  0
  8 10  1  0  0  0  0
  8 36  1  0  0  0  0
  8 37  1  0  0  0  0
  9 10  1  0  0  0  0
  9 19  2  0  0  0  0
 10 20  2  0  0  0  0
 11 18  1  0  0  0  0
 11 38  1  0  0  0  0
 11 39  1  0  0  0  0
 12 13  1  0  0  0  0
 12 16  1  0  0  0  0
 12 18  2  0  0  0  0
 13 14  1  0  0  0  0
 13 40  1  0  0  0  0
 13 41  1  0  0  0  0
 14 15  1  0  0  0  0
 14 42  1  0  0  0  0
 14 43  1  0  0  0  0
 15 17  1  0  0  0  0
 15 44  1  0  0  0  0
 15 45  1  0  0  0  0
 16 17  2  0  0  0  0
 16 23  1  0  0  0  0
 17 21  1  0  0  0  0
 18 46  1  0  0  0  0
 19 22  1  0  0  0  0
 19 47  1  0  0  0  0
 20 24  1  0  0  0  0
 20 48  1  0  0  0  0
 21 25  2  0  0  0  0
 22 24  2  0  0  0  0
 23 26  2  0  0  0  0
 23 49  1  0  0  0  0
 25 26  1  0  0  0  0
 25 50  1  0  0  0  0
 26 51  1  0  0  0  0
 27 52  1  0  0  0  0
 27 53  1  0  0  0  0
 27 54  1  0  0  0  0
 28 55  1  0  0  0  0
 28 56  1  0  0  0  0
 28 57  1  0  0  0  0
 29 58  1  0  0  0  0
 29 59  1  0  0  0  0
 29 60  1  0  0  0  0
M  END
> <PUBCHEM_COMPOUND_CID>
24178402

> <PUBCHEM_CONFORMER_RMSD>
1

> <PUBCHEM_CONFORMER_DIVERSEORDER>
5
4
53
31
6
57
8
62
43
2
10
32
22
55
14
15
45
7
19
58
61
37
34
40
20
63
17
30
1
12
35
44
16
52
46
27
36
29
48
60
56
25
33
13
51
3
28
50
9
26
42
41
24
54
18
47
59
11
23
38
49
39
21

> <PUBCHEM_MMFF94_PARTIAL_CHARGES>
34
1 -0.36
10 -0.14
11 0.14
12 -0.17
13 0.14
15 0.14
16 0.03
17 -0.14
18 -0.29
19 -0.15
2 -0.36
20 -0.15
21 0.08
22 0.08
23 -0.15
24 0.08
25 -0.15
26 -0.15
27 0.28
28 0.28
29 0.28
3 -0.36
4 -0.81
46 0.15
47 0.15
48 0.15
49 0.15
5 0.27
50 0.15
51 0.15
6 0.41
7 0.27
8 0.14
9 -0.14

> <PUBCHEM_EFFECTIVE_ROTOR_COUNT>
7.4

> <PUBCHEM_PHARMACOPHORE_FEATURES>
8
1 1 acceptor
1 2 acceptor
1 3 acceptor
1 4 cation
6 12 13 14 15 16 17 rings
6 16 17 21 23 25 26 rings
6 4 5 6 8 9 10 rings
6 9 10 19 20 22 24 rings

> <PUBCHEM_HEAVY_ATOM_COUNT>
29

> <PUBCHEM_ATOM_DEF_STEREO_COUNT>
0

> <PUBCHEM_ATOM_UDEF_STEREO_COUNT>
0

> <PUBCHEM_BOND_DEF_STEREO_COUNT>
1

> <PUBCHEM_BOND_UDEF_STEREO_COUNT>
0

> <PUBCHEM_ISOTOPIC_ATOM_COUNT>
0

> <PUBCHEM_COMPONENT_COUNT>
1

> <PUBCHEM_CACTVS_TAUTO_COUNT>
1

> <PUBCHEM_CONFORMER_ID>
0170EEE200000005

> <PUBCHEM_MMFF94_ENERGY>
104.8371

> <PUBCHEM_FEATURE_SELFOVERLAP>
40.644

> <PUBCHEM_SHAPE_FINGERPRINT>
10 15 17894355458434519993
10290309 65 18188487952980683875
10372059 70 14707473756910712903
10721379 63 18339362938808169074
10864689 126 18338514128093786548
10930396 42 17313375748070460289
11135609 201 18336816563738922179
11720765 8 17986110700564290070
11796584 16 10807943643442504526
12166972 35 10879990285071111419
12390115 104 18410860949566267259
12596602 18 16587745330513839419
12633257 1 15502378932550724594
14341114 328 17095243613737425623
14347329 18 18341888563332461011
14840074 17 18041001717650668797
14848178 5 9223230771259607366
14950920 106 16082196399438444673
14951699 99 18041565737382859517
15001296 14 18188208818023002836
15183329 4 16200436862156007102
15188451 53 10159696871945793334
15484559 13 15254458594024750042
15510800 12 9079112284633485637
18222031 100 11887683900952699514
19304671 126 17846499231936694608
19377110 9 16588023511050186907
20691028 202 18413390921432016409
21033648 29 18343293799391041258
21302155 148 18114458977116214589
21424621 283 18262233430558181258
21458453 9 12685964565370233268
21756936 100 18261946448895813842
23569914 2 17905843159795569884
2747138 104 18118693338361361715
2838139 119 18340474582799931198
3004659 81 11815892379494888130
3459 83 16271939194248116086
3882209 13 17268085554131586406
392239 28 15791728641541077322
4394409 98 12463286956402780285
44249763 50 18341602771797683274
44317340 157 15841257264175225755
46194498 28 17771902998683336930
5104073 3 18040705957549460850
5252454 2 18270384024028821939
5718773 13 8214138556305174553
57724786 102 18128253377205452739
59682541 52 16271930398355274756
6201320 82 18050865596180109824
7808743 9 18337099150737901723
9689198 14 18201728349057994657

> <PUBCHEM_SHAPE_MULTIPOLES>
574.22
19.81
2.97
1.97
1.57
0.31
-0.28
14.73
-1.03
-1.56
0.21
2.99
0.22
2.66

> <PUBCHEM_SHAPE_SELFOVERLAP>
1228.826

> <PUBCHEM_SHAPE_VOLUME>
318.9

> <PUBCHEM_COORDINATE_TYPE>
2
5
10

$$$$