101685683
  -OEChem-03242010103D

 45 46  0     0  0  0  0  0  0999 V2000
    2.1834    2.1856   -2.2598 Cl  0  0  0  0  0  0  0  0  0  0  0  0
   -5.4530    0.6463   -0.9333 F   0  0  0  0  0  0  0  0  0  0  0  0
   -3.7677    2.0140   -0.8033 F   0  0  0  0  0  0  0  0  0  0  0  0
   -3.8058    0.4877   -2.3436 F   0  0  0  0  0  0  0  0  0  0  0  0
    4.1517    0.1634   -0.0979 O   0  0  0  0  0  0  0  0  0  0  0  0
    0.6620   -1.6237    1.8663 O   0  0  0  0  0  0  0  0  0  0  0  0
    2.1261   -0.9339   -0.3911 N   0  0  0  0  0  0  0  0  0  0  0  0
    0.7432   -0.9083   -0.3382 N   0  0  0  0  0  0  0  0  0  0  0  0
    2.6574   -2.2128   -0.8260 C   0  0  0  0  0  0  0  0  0  0  0  0
    3.4793   -2.0117   -2.1044 C   0  0  0  0  0  0  0  0  0  0  0  0
    1.4940   -3.1707   -1.1026 C   0  0  0  0  0  0  0  0  0  0  0  0
    3.5542   -2.7898    0.2755 C   0  0  0  0  0  0  0  0  0  0  0  0
    2.9227    0.1516   -0.0622 C   0  0  0  0  0  0  0  0  0  0  0  0
    2.2504    1.3977    0.3512 C   0  0  0  0  0  0  0  0  0  0  0  0
    0.1003   -1.2697    0.8329 C   0  0  0  0  0  0  0  0  0  0  0  0
   -1.3828   -1.1999    0.7978 C   0  0  0  0  0  0  0  0  0  0  0  0
    1.8779    2.3760   -0.5708 C   0  0  0  0  0  0  0  0  0  0  0  0
    1.9891    1.5833    1.7089 C   0  0  0  0  0  0  0  0  0  0  0  0
   -2.0191   -0.3109   -0.0685 C   0  0  0  0  0  0  0  0  0  0  0  0
   -2.1396   -2.0229    1.6320 C   0  0  0  0  0  0  0  0  0  0  0  0
   -3.4120   -0.2449   -0.1010 C   0  0  0  0  0  0  0  0  0  0  0  0
    1.2442    3.5398   -0.1353 C   0  0  0  0  0  0  0  0  0  0  0  0
    1.3551    2.7471    2.1444 C   0  0  0  0  0  0  0  0  0  0  0  0
   -3.5325   -1.9568    1.5999 C   0  0  0  0  0  0  0  0  0  0  0  0
   -4.1687   -1.0680    0.7332 C   0  0  0  0  0  0  0  0  0  0  0  0
    0.9828    3.7254    1.2224 C   0  0  0  0  0  0  0  0  0  0  0  0
   -4.0926    0.7062   -1.0263 C   0  0  0  0  0  0  0  0  0  0  0  0
    0.9336   -3.4531   -0.2055 H   0  0  0  0  0  0  0  0  0  0  0  0
    3.8144   -2.9744   -2.5080 H   0  0  0  0  0  0  0  0  0  0  0  0
    1.8887   -4.1172   -1.4966 H   0  0  0  0  0  0  0  0  0  0  0  0
    0.8014   -2.8037   -1.8699 H   0  0  0  0  0  0  0  0  0  0  0  0
    3.8942   -3.7976    0.0091 H   0  0  0  0  0  0  0  0  0  0  0  0
    3.0189   -2.8654    1.2285 H   0  0  0  0  0  0  0  0  0  0  0  0
    4.4526   -2.1912    0.4531 H   0  0  0  0  0  0  0  0  0  0  0  0
    4.3770   -1.4067   -1.9461 H   0  0  0  0  0  0  0  0  0  0  0  0
    2.8841   -1.5166   -2.8808 H   0  0  0  0  0  0  0  0  0  0  0  0
    0.2786   -0.6359   -1.1977 H   0  0  0  0  0  0  0  0  0  0  0  0
    2.2763    0.8301    2.4381 H   0  0  0  0  0  0  0  0  0  0  0  0
   -1.4577    0.3642   -0.7087 H   0  0  0  0  0  0  0  0  0  0  0  0
   -1.6620   -2.7250    2.3104 H   0  0  0  0  0  0  0  0  0  0  0  0
    0.9473    4.3117   -0.8408 H   0  0  0  0  0  0  0  0  0  0  0  0
    1.1517    2.8916    3.2014 H   0  0  0  0  0  0  0  0  0  0  0  0
   -4.1217   -2.5983    2.2487 H   0  0  0  0  0  0  0  0  0  0  0  0
   -5.2546   -1.0323    0.7235 H   0  0  0  0  0  0  0  0  0  0  0  0
    0.4892    4.6313    1.5617 H   0  0  0  0  0  0  0  0  0  0  0  0
  1 17  1  0  0  0  0
  2 27  1  0  0  0  0
  3 27  1  0  0  0  0
  4 27  1  0  0  0  0
  5 13  2  0  0  0  0
  6 15  2  0  0  0  0
  7  8  1  0  0  0  0
  7  9  1  0  0  0  0
  7 13  1  0  0  0  0
  8 15  1  0  0  0  0
  8 37  1  0  0  0  0
  9 10  1  0  0  0  0
  9 11  1  0  0  0  0
  9 12  1  0  0  0  0
 10 29  1  0  0  0  0
 10 35  1  0  0  0  0
 10 36  1  0  0  0  0
 11 28  1  0  0  0  0
 11 30  1  0  0  0  0
 11 31  1  0  0  0  0
 12 32  1  0  0  0  0
 12 33  1  0  0  0  0
 12 34  1  0  0  0  0
 13 14  1  0  0  0  0
 14 17  1  0  0  0  0
 14 18  2  0  0  0  0
 15 16  1  0  0  0  0
 16 19  2  0  0  0  0
 16 20  1  0  0  0  0
 17 22  2  0  0  0  0
 18 23  1  0  0  0  0
 18 38  1  0  0  0  0
 19 21  1  0  0  0  0
 19 39  1  0  0  0  0
 20 24  2  0  0  0  0
 20 40  1  0  0  0  0
 21 25  2  0  0  0  0
 21 27  1  0  0  0  0
 22 26  1  0  0  0  0
 22 41  1  0  0  0  0
 23 26  2  0  0  0  0
 23 42  1  0  0  0  0
 24 25  1  0  0  0  0
 24 43  1  0  0  0  0
 25 44  1  0  0  0  0
 26 45  1  0  0  0  0
M  END
> <PUBCHEM_COMPOUND_CID>
101685683

> <PUBCHEM_CONFORMER_RMSD>
0.8

> <PUBCHEM_CONFORMER_DIVERSEORDER>
1
48
51
46
42
50
3
32
27
39
23
15
37
28
52
49
34
43
40
14
47
12
31
35
24
45
7
5
44
26
38
21
25
41
22
10
30
29
36
16
33
9
18
17
11
13
2
4
19
20
8
6

> <PUBCHEM_MMFF94_PARTIAL_CHARGES>
33
1 -0.18
13 0.54
14 0.09
15 0.54
16 0.09
17 0.18
18 -0.15
19 -0.15
2 -0.34
20 -0.15
21 -0.14
22 -0.15
23 -0.15
24 -0.15
25 -0.15
26 -0.15
27 1.16
3 -0.34
37 0.37
38 0.15
39 0.15
4 -0.34
40 0.15
41 0.15
42 0.15
43 0.15
44 0.15
45 0.15
5 -0.57
6 -0.57
7 -0.36
8 -0.43
9 0.3

> <PUBCHEM_EFFECTIVE_ROTOR_COUNT>
7

> <PUBCHEM_PHARMACOPHORE_FEATURES>
6
1 5 acceptor
1 6 acceptor
1 8 donor
4 9 10 11 12 hydrophobe
6 14 17 18 22 23 26 rings
6 16 19 20 21 24 25 rings

> <PUBCHEM_HEAVY_ATOM_COUNT>
27

> <PUBCHEM_ATOM_DEF_STEREO_COUNT>
0

> <PUBCHEM_ATOM_UDEF_STEREO_COUNT>
0

> <PUBCHEM_BOND_DEF_STEREO_COUNT>
0

> <PUBCHEM_BOND_UDEF_STEREO_COUNT>
0

> <PUBCHEM_ISOTOPIC_ATOM_COUNT>
0

> <PUBCHEM_COMPONENT_COUNT>
1

> <PUBCHEM_CACTVS_TAUTO_COUNT>
2

> <PUBCHEM_CONFORMER_ID>
060F99B300000001

> <PUBCHEM_MMFF94_ENERGY>
79.6989

> <PUBCHEM_FEATURE_SELFOVERLAP>
30.446

> <PUBCHEM_SHAPE_FINGERPRINT>
10165383 225 17474985449437289512
10930396 42 18051378874830959730
11595378 159 16371276866014453689
12156800 1 17327986929714352802
12160290 23 17263023359061120786
12293681 4 18193841431460616155
12788726 201 17834958568559724626
13134695 92 18272365352376492356
13402501 40 18334570274173455909
13583140 156 18337393837329946603
13681431 1 18271540723056265618
13911987 19 17980239462858563854
14251757 17 18187933845615286609
14866123 147 16606320162000463482
151778 21 18051147070190326409
15210252 30 17969232144198855468
15806764 133 18335436672435673883
17357779 13 18199478679569232718
19591789 44 16322050209588184146
20567600 299 18272364287050932449
20600515 1 18042390345107158024
21860390 5 18413385432125676436
221357 26 18339637833488163997
22289505 5 18410853231193187700
23419403 2 17908947000069440016
23557571 272 17968661656947022995
23559900 14 18334293171615792843
238 59 18270398437448060677
3380486 77 17823984429313695226
350125 39 17478621560676976826
35225 105 13197297841808399813
46194498 28 18117294741815266070
495365 180 18128529560355160977
508706 21 17967523585044315157
5252454 2 17550119494063166064
5281201 14 18409737274420731499
54672768 99 18261673778322563037
57527452 28 14948100445285871476
5969126 39 17842287969601471542
6049 1 18261123997197527915
6438718 38 17268646299752894545
7399639 24 17762339515037812155
7808743 9 16895685856996001020
81228 2 17834973966291521010
9709674 26 18334859450369341663

> <PUBCHEM_SHAPE_MULTIPOLES>
514
8.12
4.39
2.05
9.72
1.63
0.29
-1.15
2.6
-4.08
-0.35
0.14
0.51
2.35

> <PUBCHEM_SHAPE_SELFOVERLAP>
1090.235

> <PUBCHEM_SHAPE_VOLUME>
290.2

> <PUBCHEM_COORDINATE_TYPE>
2
5
10

$$$$