134130126
  -OEChem-03242010103D

 47 50  0     0  0  0  0  0  0999 V2000
    6.5962   -0.3402    0.7280 S   0  0  0  0  0  0  0  0  0  0  0  0
   -3.5221    2.1447    0.7442 O   0  0  0  0  0  0  0  0  0  0  0  0
   -0.2538    0.8583   -2.0543 O   0  5  0  0  0  0  0  0  0  0  0  0
   -1.6285    2.4074   -2.7819 O   0  0  0  0  0  0  0  0  0  0  0  0
   -2.0781    0.3454    0.2942 N   0  0  0  0  0  0  0  0  0  0  0  0
    0.9935   -2.1831   -0.1388 N   0  0  0  0  0  0  0  0  0  0  0  0
   -0.0579   -1.5269    0.3721 N   0  0  0  0  0  0  0  0  0  0  0  0
   -0.6119   -3.3669   -0.8258 N   0  0  0  0  0  0  0  0  0  0  0  0
    0.7123   -3.2799   -0.8558 N   0  0  0  0  0  0  0  0  0  0  0  0
   -0.8178    1.9708   -1.9316 N   0  3  0  0  0  0  0  0  0  0  0  0
   -2.4359   -2.0613    0.1742 C   0  0  0  0  0  0  0  0  0  0  0  0
   -2.9234   -0.7673    0.3566 C   0  0  0  0  0  0  0  0  0  0  0  0
   -1.0413   -2.3061   -0.0852 C   0  0  0  0  0  0  0  0  0  0  0  0
   -3.3052   -3.1500    0.2416 C   0  0  0  0  0  0  0  0  0  0  0  0
   -4.2803   -0.5619    0.6064 C   0  0  0  0  0  0  0  0  0  0  0  0
   -1.2798    2.6471    0.3813 C   0  0  0  0  0  0  0  0  0  0  0  0
    2.2993   -1.7531    0.0631 C   0  0  0  0  0  0  0  0  0  0  0  0
   -2.4129    1.6905    0.4846 C   0  0  0  0  0  0  0  0  0  0  0  0
   -4.6621   -2.9447    0.4915 C   0  0  0  0  0  0  0  0  0  0  0  0
   -5.1497   -1.6507    0.6739 C   0  0  0  0  0  0  0  0  0  0  0  0
   -0.5280    2.7655   -0.7874 C   0  0  0  0  0  0  0  0  0  0  0  0
   -0.9755    3.4376    1.4894 C   0  0  0  0  0  0  0  0  0  0  0  0
    2.5473   -0.6062    0.8173 C   0  0  0  0  0  0  0  0  0  0  0  0
    3.3623   -2.4687   -0.4882 C   0  0  0  0  0  0  0  0  0  0  0  0
    0.5283    3.6744   -0.8482 C   0  0  0  0  0  0  0  0  0  0  0  0
    4.9210   -0.8904    0.4689 C   0  0  0  0  0  0  0  0  0  0  0  0
    3.8581   -0.1748    1.0202 C   0  0  0  0  0  0  0  0  0  0  0  0
    4.6731   -2.0373   -0.2853 C   0  0  0  0  0  0  0  0  0  0  0  0
    0.0809    4.3466    1.4288 C   0  0  0  0  0  0  0  0  0  0  0  0
    0.8328    4.4650    0.2600 C   0  0  0  0  0  0  0  0  0  0  0  0
    6.5591    1.3161   -0.0135 C   0  0  0  0  0  0  0  0  0  0  0  0
   -1.0982    0.1526    0.1076 H   0  0  0  0  0  0  0  0  0  0  0  0
   -2.9508   -4.1695    0.1085 H   0  0  0  0  0  0  0  0  0  0  0  0
   -4.7459    0.4011    0.7529 H   0  0  0  0  0  0  0  0  0  0  0  0
   -5.3391   -3.7923    0.5449 H   0  0  0  0  0  0  0  0  0  0  0  0
   -6.2068   -1.4925    0.8671 H   0  0  0  0  0  0  0  0  0  0  0  0
   -1.5514    3.3541    2.4075 H   0  0  0  0  0  0  0  0  0  0  0  0
    1.7462   -0.0217    1.2626 H   0  0  0  0  0  0  0  0  0  0  0  0
    3.2105   -3.3665   -1.0816 H   0  0  0  0  0  0  0  0  0  0  0  0
    1.1238    3.7776   -1.7521 H   0  0  0  0  0  0  0  0  0  0  0  0
    4.0279    0.7181    1.6167 H   0  0  0  0  0  0  0  0  0  0  0  0
    5.4889   -2.6076   -0.7228 H   0  0  0  0  0  0  0  0  0  0  0  0
    0.3184    4.9616    2.2919 H   0  0  0  0  0  0  0  0  0  0  0  0
    1.6555    5.1724    0.2130 H   0  0  0  0  0  0  0  0  0  0  0  0
    7.5685    1.7356   -0.0025 H   0  0  0  0  0  0  0  0  0  0  0  0
    5.9019    1.9802    0.5538 H   0  0  0  0  0  0  0  0  0  0  0  0
    6.2146    1.2613   -1.0498 H   0  0  0  0  0  0  0  0  0  0  0  0
  1 26  1  0  0  0  0
  1 31  1  0  0  0  0
  2 18  2  0  0  0  0
  3 10  1  0  0  0  0
  4 10  2  0  0  0  0
  5 12  1  0  0  0  0
  5 18  1  0  0  0  0
  5 32  1  0  0  0  0
  6  7  1  0  0  0  0
  6  9  1  0  0  0  0
  6 17  1  0  0  0  0
  7 13  2  0  0  0  0
  8  9  2  0  0  0  0
  8 13  1  0  0  0  0
 10 21  1  0  0  0  0
 11 12  1  0  0  0  0
 11 13  1  0  0  0  0
 11 14  2  0  0  0  0
 12 15  2  0  0  0  0
 14 19  1  0  0  0  0
 14 33  1  0  0  0  0
 15 20  1  0  0  0  0
 15 34  1  0  0  0  0
 16 18  1  0  0  0  0
 16 21  1  0  0  0  0
 16 22  2  0  0  0  0
 17 23  2  0  0  0  0
 17 24  1  0  0  0  0
 19 20  2  0  0  0  0
 19 35  1  0  0  0  0
 20 36  1  0  0  0  0
 21 25  2  0  0  0  0
 22 29  1  0  0  0  0
 22 37  1  0  0  0  0
 23 27  1  0  0  0  0
 23 38  1  0  0  0  0
 24 28  2  0  0  0  0
 24 39  1  0  0  0  0
 25 30  1  0  0  0  0
 25 40  1  0  0  0  0
 26 27  2  0  0  0  0
 26 28  1  0  0  0  0
 27 41  1  0  0  0  0
 28 42  1  0  0  0  0
 29 30  2  0  0  0  0
 29 43  1  0  0  0  0
 30 44  1  0  0  0  0
 31 45  1  0  0  0  0
 31 46  1  0  0  0  0
 31 47  1  0  0  0  0
M  CHG  2   3  -1  10   1
M  END
> <PUBCHEM_COMPOUND_CID>
134130126

> <PUBCHEM_CONFORMER_RMSD>
1

> <PUBCHEM_CONFORMER_DIVERSEORDER>
1
24
12
21
9
16
19
41
34
2
43
10
44
8
22
30
7
23
14
4
17
5
48
33
20
46
42
3
35
29
40
49
11
13
37
28
39
26
15
25
31
47
36
45
27
18
38
32
6

> <PUBCHEM_MMFF94_PARTIAL_CHARGES>
44
1 -0.33
10 0.91
11 0.05
12 0.12
13 0.46
14 -0.15
15 -0.15
16 0.09
17 -0.02
18 0.54
19 -0.15
2 -0.57
20 -0.15
21 0.13
22 -0.15
23 -0.15
24 -0.15
25 -0.15
26 0.1
27 -0.15
28 -0.15
29 -0.15
3 -0.52
30 -0.15
31 0.23
32 0.37
33 0.15
34 0.15
35 0.15
36 0.15
37 0.15
38 0.15
39 0.15
4 -0.52
40 0.15
41 0.15
42 0.15
43 0.15
44 0.15
5 -0.55
6 0.86
7 -0.71
8 -0.23
9 -0.42

> <PUBCHEM_EFFECTIVE_ROTOR_COUNT>
7

> <PUBCHEM_PHARMACOPHORE_FEATURES>
11
1 2 acceptor
1 3 acceptor
1 3 anion
1 31 hydrophobe
1 4 acceptor
1 5 donor
3 7 8 13 cation
5 6 7 8 9 13 rings
6 11 12 14 15 19 20 rings
6 16 21 22 25 29 30 rings
6 17 23 24 26 27 28 rings

> <PUBCHEM_HEAVY_ATOM_COUNT>
31

> <PUBCHEM_ATOM_DEF_STEREO_COUNT>
0

> <PUBCHEM_ATOM_UDEF_STEREO_COUNT>
0

> <PUBCHEM_BOND_DEF_STEREO_COUNT>
0

> <PUBCHEM_BOND_UDEF_STEREO_COUNT>
0

> <PUBCHEM_ISOTOPIC_ATOM_COUNT>
0

> <PUBCHEM_COMPONENT_COUNT>
1

> <PUBCHEM_CACTVS_TAUTO_COUNT>
6

> <PUBCHEM_CONFORMER_ID>
07FEA9CE00000001

> <PUBCHEM_MMFF94_ENERGY>
101.6617

> <PUBCHEM_FEATURE_SELFOVERLAP>
55.902

> <PUBCHEM_SHAPE_FINGERPRINT>
10006869 2 18049155567576587995
10165383 225 16464489772123962791
10670039 82 18335999588541151134
1100329 8 18051697938374084258
11578080 2 13397253889271437691
11595378 159 18115010940775732986
12156800 1 16555417498039730304
138480 1 15024153617207941561
140371 6 18340501019089081155
14415360 78 17038945041188755780
14713325 29 18196092145011761002
14955137 171 18339374070840966171
15419008 145 18337378367922694994
15927050 60 17332812050519745390
15961568 22 18412269462853362094
17627616 140 17690279738908324106
17980427 23 18202571696294727031
18336668 15 18187648054286192413
19611394 137 17972892633130206850
20771845 171 17246957738081235647
21344244 246 17764292239510725471
21795232 40 18335412431693568197
21796203 349 17976015181384754560
23419403 2 18044914982955614407
238 59 16967990265781829605
23845131 108 17400930700297438481
24771293 8 18130797729212189243
25019877 29 17131837611378897671
469060 322 17168145607310091934
474144 1 17970364804436540884
50150288 127 15983142440669476336
57091435 65 17906461278814040987
6371009 1 17255947988709094475

> <PUBCHEM_SHAPE_MULTIPOLES>
594.32
10.88
6.23
1.39
13.96
5.32
-0.81
-7.63
3.19
-2.24
0
-0.35
1.26
0.53

> <PUBCHEM_SHAPE_SELFOVERLAP>
1293.32

> <PUBCHEM_SHAPE_VOLUME>
325.6

> <PUBCHEM_COORDINATE_TYPE>
2
5
10

$$$$