56945421
  -OEChem-03242010103D

 44 46  0     0  0  0  0  0  0999 V2000
    7.0683   -2.4740   -1.2911 F   0  0  0  0  0  0  0  0  0  0  0  0
    7.3614    1.4094    1.4041 F   0  0  0  0  0  0  0  0  0  0  0  0
   -6.7638   -1.7952    0.8173 O   0  0  0  0  0  0  0  0  0  0  0  0
   -1.8361   -2.0729   -0.2328 O   0  0  0  0  0  0  0  0  0  0  0  0
   -5.5495    2.4335   -1.0754 O   0  0  0  0  0  0  0  0  0  0  0  0
   -7.4925    0.7093   -0.1134 O   0  0  0  0  0  0  0  0  0  0  0  0
    0.2456    3.1555   -0.9287 O   0  5  0  0  0  0  0  0  0  0  0  0
    0.1905    2.9805    1.2588 O   0  0  0  0  0  0  0  0  0  0  0  0
   -1.1510    0.1718   -0.1012 N   0  0  0  0  0  0  0  0  0  0  0  0
    0.4634    2.5171    0.1272 N   0  3  0  0  0  0  0  0  0  0  0  0
    3.0231   -0.1620   -0.0221 C   0  0  0  0  0  0  0  0  0  0  0  0
    0.2442    0.0801   -0.0734 C   0  0  0  0  0  0  0  0  0  0  0  0
    1.0415    1.2192    0.0378 C   0  0  0  0  0  0  0  0  0  0  0  0
    4.4641   -0.2885    0.0045 C   0  0  0  0  0  0  0  0  0  0  0  0
    2.4309    1.0981    0.0636 C   0  0  0  0  0  0  0  0  0  0  0  0
    2.2258   -1.3011   -0.1334 C   0  0  0  0  0  0  0  0  0  0  0  0
    0.8363   -1.1800   -0.1590 C   0  0  0  0  0  0  0  0  0  0  0  0
   -3.5063   -0.4553   -0.1589 C   0  0  0  0  0  0  0  0  0  0  0  0
   -2.0795   -0.8723   -0.1766 C   0  0  0  0  0  0  0  0  0  0  0  0
    5.2335    0.6407    0.7047 C   0  0  0  0  0  0  0  0  0  0  0  0
    5.0838   -1.3404   -0.6702 C   0  0  0  0  0  0  0  0  0  0  0  0
   -4.4818   -1.3261    0.3263 C   0  0  0  0  0  0  0  0  0  0  0  0
   -3.8694    0.8069   -0.6290 C   0  0  0  0  0  0  0  0  0  0  0  0
   -5.8206   -0.9348    0.3417 C   0  0  0  0  0  0  0  0  0  0  0  0
   -5.2081    1.1982   -0.6135 C   0  0  0  0  0  0  0  0  0  0  0  0
   -6.1837    0.3274   -0.1280 C   0  0  0  0  0  0  0  0  0  0  0  0
    6.4730   -1.4633   -0.6443 C   0  0  0  0  0  0  0  0  0  0  0  0
    6.6227    0.5178    0.7306 C   0  0  0  0  0  0  0  0  0  0  0  0
    7.2425   -0.5343    0.0562 C   0  0  0  0  0  0  0  0  0  0  0  0
   -6.3082   -3.0656    1.2783 C   0  0  0  0  0  0  0  0  0  0  0  0
    3.0259    2.0070    0.1199 H   0  0  0  0  0  0  0  0  0  0  0  0
    2.6419   -2.3042   -0.1727 H   0  0  0  0  0  0  0  0  0  0  0  0
    0.2982   -2.1122   -0.2460 H   0  0  0  0  0  0  0  0  0  0  0  0
   -1.5111    1.1150    0.0016 H   0  0  0  0  0  0  0  0  0  0  0  0
    4.7946    1.4584    1.2697 H   0  0  0  0  0  0  0  0  0  0  0  0
    4.5293   -2.0707   -1.2528 H   0  0  0  0  0  0  0  0  0  0  0  0
   -4.1476   -2.2927    0.6869 H   0  0  0  0  0  0  0  0  0  0  0  0
   -3.1400    1.4927   -1.0504 H   0  0  0  0  0  0  0  0  0  0  0  0
    8.3239   -0.6302    0.0767 H   0  0  0  0  0  0  0  0  0  0  0  0
   -4.7467    2.8981   -1.3678 H   0  0  0  0  0  0  0  0  0  0  0  0
   -7.5533    1.6106   -0.4750 H   0  0  0  0  0  0  0  0  0  0  0  0
   -5.8590   -3.6522    0.4695 H   0  0  0  0  0  0  0  0  0  0  0  0
   -5.6434   -2.9671    2.1434 H   0  0  0  0  0  0  0  0  0  0  0  0
   -7.1897   -3.6192    1.6184 H   0  0  0  0  0  0  0  0  0  0  0  0
  1 27  1  0  0  0  0
  2 28  1  0  0  0  0
  3 24  1  0  0  0  0
  3 30  1  0  0  0  0
  4 19  2  0  0  0  0
  5 25  1  0  0  0  0
  5 40  1  0  0  0  0
  6 26  1  0  0  0  0
  6 41  1  0  0  0  0
  7 10  1  0  0  0  0
  8 10  2  0  0  0  0
  9 12  1  0  0  0  0
  9 19  1  0  0  0  0
  9 34  1  0  0  0  0
 10 13  1  0  0  0  0
 11 14  1  0  0  0  0
 11 15  2  0  0  0  0
 11 16  1  0  0  0  0
 12 13  2  0  0  0  0
 12 17  1  0  0  0  0
 13 15  1  0  0  0  0
 14 20  2  0  0  0  0
 14 21  1  0  0  0  0
 15 31  1  0  0  0  0
 16 17  2  0  0  0  0
 16 32  1  0  0  0  0
 17 33  1  0  0  0  0
 18 19  1  0  0  0  0
 18 22  1  0  0  0  0
 18 23  2  0  0  0  0
 20 28  1  0  0  0  0
 20 35  1  0  0  0  0
 21 27  2  0  0  0  0
 21 36  1  0  0  0  0
 22 24  2  0  0  0  0
 22 37  1  0  0  0  0
 23 25  1  0  0  0  0
 23 38  1  0  0  0  0
 24 26  1  0  0  0  0
 25 26  2  0  0  0  0
 27 29  1  0  0  0  0
 28 29  2  0  0  0  0
 29 39  1  0  0  0  0
 30 42  1  0  0  0  0
 30 43  1  0  0  0  0
 30 44  1  0  0  0  0
M  CHG  2   7  -1  10   1
M  END
> <PUBCHEM_COMPOUND_CID>
56945421

> <PUBCHEM_CONFORMER_RMSD>
0.8

> <PUBCHEM_CONFORMER_DIVERSEORDER>
3
29
21
27
7
26
20
11
18
8
15
9
12
28
6
24
23
22
25
16
10
14
5
4
17
13
1
2
19

> <PUBCHEM_MMFF94_PARTIAL_CHARGES>
39
1 -0.19
10 0.91
12 0.12
13 0.13
15 -0.15
16 -0.15
17 -0.15
18 0.09
19 0.54
2 -0.19
20 -0.15
21 -0.15
22 -0.15
23 -0.15
24 0.08
25 0.08
26 0.08
27 0.19
28 0.19
29 -0.15
3 -0.36
30 0.28
31 0.15
32 0.15
33 0.15
34 0.37
35 0.15
36 0.15
37 0.15
38 0.15
39 0.15
4 -0.57
40 0.45
41 0.45
5 -0.53
6 -0.53
7 -0.52
8 -0.52
9 -0.55

> <PUBCHEM_EFFECTIVE_ROTOR_COUNT>
6

> <PUBCHEM_PHARMACOPHORE_FEATURES>
11
1 3 acceptor
1 4 acceptor
1 5 donor
1 6 donor
1 7 acceptor
1 7 anion
1 8 acceptor
1 9 donor
6 11 12 13 15 16 17 rings
6 14 20 21 27 28 29 rings
6 18 22 23 24 25 26 rings

> <PUBCHEM_HEAVY_ATOM_COUNT>
30

> <PUBCHEM_ATOM_DEF_STEREO_COUNT>
0

> <PUBCHEM_ATOM_UDEF_STEREO_COUNT>
0

> <PUBCHEM_BOND_DEF_STEREO_COUNT>
0

> <PUBCHEM_BOND_UDEF_STEREO_COUNT>
0

> <PUBCHEM_ISOTOPIC_ATOM_COUNT>
0

> <PUBCHEM_COMPONENT_COUNT>
1

> <PUBCHEM_CACTVS_TAUTO_COUNT>
22

> <PUBCHEM_CONFORMER_ID>
0364EB0D00000003

> <PUBCHEM_MMFF94_ENERGY>
110.2766

> <PUBCHEM_FEATURE_SELFOVERLAP>
55.908

> <PUBCHEM_SHAPE_FINGERPRINT>
10 15 18409443730659480162
10299344 5 17022621974529565474
10319926 262 18334564781426775345
11315181 36 17989768900376980123
11646440 116 18201444700342503491
11963148 33 18261387845460566842
12166972 35 18113624507667112892
12236239 1 17418091026873507975
12516196 113 18343582949579765768
13402501 40 18411135822771679015
13685833 64 18411421726018213106
13782708 43 18187929538222434099
14294032 229 17461442421580071468
14849402 71 17631451344280320896
14856354 85 16443070504105294835
14933364 13 18410575080595146918
15131766 46 15049727665782216088
15183329 4 16153428346306782026
15419008 91 18336248103311604004
15510794 2 18412262835165280542
15849732 13 18272651255248253287
15927050 60 18408037412033381683
16087824 20 18265615369702671613
17980427 23 16988575601497445681
18608769 82 18335139830345734819
19841028 212 17896032136907127202
21033648 29 18059839676418350569
21130935 74 18343305859596632426
21236236 1 18059294245120116728
21267235 1 18410863161010006199
21315759 40 16298099904161370858
21792934 111 18271796896818349360
23081809 10 15936406723999367814
23522609 53 16951427445759196092
23559900 14 18059564832333204513
24771293 8 18127394865199542232
24771750 20 17975704110448699164
3004659 81 18186241727928397934
3178227 256 18337121158667479883
335352 9 18411417319581877093
3383291 50 18188211013136387571
4073 2 18041002872712145259
59755656 215 18338237059948544486
6009941 240 18261672584748461397

> <PUBCHEM_SHAPE_MULTIPOLES>
557.66
22.35
2.77
0.96
3.55
0.73
0.1
-7.31
1.71
-2.01
0.13
0.35
0.03
3.31

> <PUBCHEM_SHAPE_SELFOVERLAP>
1228.427

> <PUBCHEM_SHAPE_VOLUME>
301.3

> <PUBCHEM_COORDINATE_TYPE>
2
5
10

$$$$