11537051
  -OEChem-03242010103D

 44 46  0     0  0  0  0  0  0999 V2000
   -1.8021    2.6923   -2.3697 O   0  0  0  0  0  0  0  0  0  0  0  0
   -2.1926    2.4769    2.3822 O   0  0  0  0  0  0  0  0  0  0  0  0
    4.5234    1.3760    0.4878 O   0  0  0  0  0  0  0  0  0  0  0  0
   -1.1839   -1.5544   -0.1146 C   0  0  0  0  0  0  0  0  0  0  0  0
    0.1223   -2.0436   -0.0296 C   0  0  0  0  0  0  0  0  0  0  0  0
   -1.4645   -0.1311   -0.0730 C   0  0  0  0  0  0  0  0  0  0  0  0
    1.2602   -1.1605    0.1040 C   0  0  0  0  0  0  0  0  0  0  0  0
   -2.2561   -2.4375   -0.2428 C   0  0  0  0  0  0  0  0  0  0  0  0
    0.3487   -3.4216   -0.0737 C   0  0  0  0  0  0  0  0  0  0  0  0
   -1.6972    0.4940    1.1494 C   0  0  0  0  0  0  0  0  0  0  0  0
   -1.4991    0.6030   -1.2559 C   0  0  0  0  0  0  0  0  0  0  0  0
    1.9077   -0.6799   -1.0341 C   0  0  0  0  0  0  0  0  0  0  0  0
    1.7095   -0.7889    1.3712 C   0  0  0  0  0  0  0  0  0  0  0  0
   -2.0258   -3.8125   -0.2866 C   0  0  0  0  0  0  0  0  0  0  0  0
   -1.7680    1.9711   -1.2162 C   0  0  0  0  0  0  0  0  0  0  0  0
   -1.9662    1.8621    1.1892 C   0  0  0  0  0  0  0  0  0  0  0  0
   -0.7234   -4.3047   -0.2019 C   0  0  0  0  0  0  0  0  0  0  0  0
   -2.0016    2.6006    0.0064 C   0  0  0  0  0  0  0  0  0  0  0  0
    3.0045    0.1722   -0.9051 C   0  0  0  0  0  0  0  0  0  0  0  0
    2.8064    0.0631    1.5002 C   0  0  0  0  0  0  0  0  0  0  0  0
    3.4539    0.5435    0.3620 C   0  0  0  0  0  0  0  0  0  0  0  0
   -1.5539    1.9863   -3.5846 C   0  0  0  0  0  0  0  0  0  0  0  0
   -2.1397    1.6627    3.5526 C   0  0  0  0  0  0  0  0  0  0  0  0
    5.1373    1.8310   -0.7171 C   0  0  0  0  0  0  0  0  0  0  0  0
   -3.2787   -2.0730   -0.3102 H   0  0  0  0  0  0  0  0  0  0  0  0
    1.3568   -3.8254   -0.0093 H   0  0  0  0  0  0  0  0  0  0  0  0
   -1.6586   -0.1257    2.0400 H   0  0  0  0  0  0  0  0  0  0  0  0
   -1.3112    0.0656   -2.1803 H   0  0  0  0  0  0  0  0  0  0  0  0
    1.5694   -0.9598   -2.0291 H   0  0  0  0  0  0  0  0  0  0  0  0
    1.2161   -1.1539    2.2690 H   0  0  0  0  0  0  0  0  0  0  0  0
   -2.8605   -4.5001   -0.3865 H   0  0  0  0  0  0  0  0  0  0  0  0
   -0.5444   -5.3754   -0.2359 H   0  0  0  0  0  0  0  0  0  0  0  0
   -2.2108    3.6670    0.0376 H   0  0  0  0  0  0  0  0  0  0  0  0
    3.4599    0.5087   -1.8302 H   0  0  0  0  0  0  0  0  0  0  0  0
    3.1513    0.3496    2.4899 H   0  0  0  0  0  0  0  0  0  0  0  0
   -0.5407    1.5704   -3.6088 H   0  0  0  0  0  0  0  0  0  0  0  0
   -1.6194    2.7141   -4.4001 H   0  0  0  0  0  0  0  0  0  0  0  0
   -2.3202    1.2266   -3.7726 H   0  0  0  0  0  0  0  0  0  0  0  0
   -1.1410    1.2388    3.7035 H   0  0  0  0  0  0  0  0  0  0  0  0
   -2.9208    0.8949    3.5448 H   0  0  0  0  0  0  0  0  0  0  0  0
   -2.3420    2.3146    4.4088 H   0  0  0  0  0  0  0  0  0  0  0  0
    4.4487    2.4372   -1.3155 H   0  0  0  0  0  0  0  0  0  0  0  0
    5.5642    1.0007   -1.2897 H   0  0  0  0  0  0  0  0  0  0  0  0
    5.9694    2.4823   -0.4300 H   0  0  0  0  0  0  0  0  0  0  0  0
  1 15  1  0  0  0  0
  1 22  1  0  0  0  0
  2 16  1  0  0  0  0
  2 23  1  0  0  0  0
  3 21  1  0  0  0  0
  3 24  1  0  0  0  0
  4  5  1  0  0  0  0
  4  6  1  0  0  0  0
  4  8  2  0  0  0  0
  5  7  1  0  0  0  0
  5  9  2  0  0  0  0
  6 10  2  0  0  0  0
  6 11  1  0  0  0  0
  7 12  2  0  0  0  0
  7 13  1  0  0  0  0
  8 14  1  0  0  0  0
  8 25  1  0  0  0  0
  9 17  1  0  0  0  0
  9 26  1  0  0  0  0
 10 16  1  0  0  0  0
 10 27  1  0  0  0  0
 11 15  2  0  0  0  0
 11 28  1  0  0  0  0
 12 19  1  0  0  0  0
 12 29  1  0  0  0  0
 13 20  2  0  0  0  0
 13 30  1  0  0  0  0
 14 17  2  0  0  0  0
 14 31  1  0  0  0  0
 15 18  1  0  0  0  0
 16 18  2  0  0  0  0
 17 32  1  0  0  0  0
 18 33  1  0  0  0  0
 19 21  2  0  0  0  0
 19 34  1  0  0  0  0
 20 21  1  0  0  0  0
 20 35  1  0  0  0  0
 22 36  1  0  0  0  0
 22 37  1  0  0  0  0
 22 38  1  0  0  0  0
 23 39  1  0  0  0  0
 23 40  1  0  0  0  0
 23 41  1  0  0  0  0
 24 42  1  0  0  0  0
 24 43  1  0  0  0  0
 24 44  1  0  0  0  0
M  END
> <PUBCHEM_COMPOUND_CID>
11537051

> <PUBCHEM_CONFORMER_RMSD>
0.8

> <PUBCHEM_CONFORMER_DIVERSEORDER>
2
1

> <PUBCHEM_MMFF94_PARTIAL_CHARGES>
31
1 -0.36
10 -0.15
11 -0.15
12 -0.15
13 -0.15
14 -0.15
15 0.08
16 0.08
17 -0.15
18 -0.15
19 -0.15
2 -0.36
20 -0.15
21 0.08
22 0.28
23 0.28
24 0.28
25 0.15
26 0.15
27 0.15
28 0.15
29 0.15
3 -0.36
30 0.15
31 0.15
32 0.15
33 0.15
34 0.15
35 0.15
8 -0.15
9 -0.15

> <PUBCHEM_EFFECTIVE_ROTOR_COUNT>
5

> <PUBCHEM_PHARMACOPHORE_FEATURES>
6
1 1 acceptor
1 2 acceptor
1 3 acceptor
6 4 5 8 9 14 17 rings
6 6 10 11 15 16 18 rings
6 7 12 13 19 20 21 rings

> <PUBCHEM_HEAVY_ATOM_COUNT>
24

> <PUBCHEM_ATOM_DEF_STEREO_COUNT>
0

> <PUBCHEM_ATOM_UDEF_STEREO_COUNT>
0

> <PUBCHEM_BOND_DEF_STEREO_COUNT>
0

> <PUBCHEM_BOND_UDEF_STEREO_COUNT>
0

> <PUBCHEM_ISOTOPIC_ATOM_COUNT>
0

> <PUBCHEM_COMPONENT_COUNT>
1

> <PUBCHEM_CACTVS_TAUTO_COUNT>
1

> <PUBCHEM_CONFORMER_ID>
00B00A9B00000002

> <PUBCHEM_MMFF94_ENERGY>
106.917

> <PUBCHEM_FEATURE_SELFOVERLAP>
30.448

> <PUBCHEM_SHAPE_FINGERPRINT>
10165383 225 17834998232508317532
107951 10 17414750641950524464
10871710 139 17823135803688964772
11045515 52 17609484278762369286
11582403 64 16519307208437807869
11640471 11 16983193294468560761
11725454 13 16375202955464615325
12156800 1 16477471031350145241
12160290 23 18198322113258838602
12173636 292 18272656705535611840
12788726 201 18272643597548664355
128993 33 17985277269848037264
133893 2 17692802692924125111
13583140 156 17387696003271477434
14142880 1 18335146426856085265
14713325 29 18057904600509835930
14787075 74 17988635294998439897
14955137 171 17764329618173557995
18981168 100 18194125109702451336
19930381 70 17903339430169281261
20510252 161 18340482386829666066
20600515 1 17979926234450018615
20642791 239 17102286209067546086
20905425 154 15114709717363327435
22907989 373 18265316464935115068
23419403 2 17262964427799047615
23557571 272 18055361481427778270
238 59 17686318890082349133
266924 78 17836921201305067549
350125 39 18267308638049931379
376196 1 16955035948311320788
469060 322 17750242576080986321
57527585 21 17201625878042110416
6442390 28 18055945167293504939
81228 2 18193010406844577314
9981440 41 18045759222854655096
9999458 23 17480620090226470465

> <PUBCHEM_SHAPE_MULTIPOLES>
476.3
5.8
4.73
2.61
10.42
4.01
-0.1
-3.49
-0.29
-4.22
0.77
-2.23
-3.4
-0.55

> <PUBCHEM_SHAPE_SELFOVERLAP>
1041.294

> <PUBCHEM_SHAPE_VOLUME>
260.8

> <PUBCHEM_COORDINATE_TYPE>
2
5
10

$$$$