25155850
  -OEChem-03242010103D

 66 69  0     0  0  0  0  0  0999 V2000
    8.9916   -0.5341   -1.8051 Cl  0  0  0  0  0  0  0  0  0  0  0  0
   -3.1012    2.0782    0.3694 O   0  0  0  0  0  0  0  0  0  0  0  0
   -0.4693   -2.9703   -0.1238 O   0  0  0  0  0  0  0  0  0  0  0  0
    1.4809    0.6734   -0.3563 N   0  0  0  0  0  0  0  0  0  0  0  0
    4.3155    0.5564   -0.0231 N   0  0  0  0  0  0  0  0  0  0  0  0
    2.2964   -0.1794   -1.2300 C   0  0  0  0  0  0  0  0  0  0  0  0
    2.2363    1.8767    0.0131 C   0  0  0  0  0  0  0  0  0  0  0  0
    3.5846   -0.6133   -0.5267 C   0  0  0  0  0  0  0  0  0  0  0  0
    3.5233    1.5118    0.7571 C   0  0  0  0  0  0  0  0  0  0  0  0
    0.2285    1.0368   -1.0181 C   0  0  0  0  0  0  0  0  0  0  0  0
   -0.8309    1.4014    0.0169 C   0  0  0  0  0  0  0  0  0  0  0  0
    5.6838    0.4159    0.2340 C   0  0  0  0  0  0  0  0  0  0  0  0
   -2.1546    1.7641   -0.6426 C   0  0  0  0  0  0  0  0  0  0  0  0
    6.5538    0.0531   -0.7941 C   0  0  0  0  0  0  0  0  0  0  0  0
    6.1779    0.6402    1.5190 C   0  0  0  0  0  0  0  0  0  0  0  0
    7.9178   -0.0851   -0.5373 C   0  0  0  0  0  0  0  0  0  0  0  0
    7.5419    0.5019    1.7760 C   0  0  0  0  0  0  0  0  0  0  0  0
   -4.4186    1.8312    0.0822 C   0  0  0  0  0  0  0  0  0  0  0  0
   -5.1646    0.9467    0.8611 C   0  0  0  0  0  0  0  0  0  0  0  0
   -4.5464    0.2490    2.0273 C   0  0  0  0  0  0  0  0  0  0  0  0
    8.4118    0.1393    0.7477 C   0  0  0  0  0  0  0  0  0  0  0  0
   -4.5896   -1.2883    1.9326 C   0  0  0  0  0  0  0  0  0  0  0  0
   -5.0120    2.4754   -1.0034 C   0  0  0  0  0  0  0  0  0  0  0  0
   -6.5039    0.7062    0.5542 C   0  0  0  0  0  0  0  0  0  0  0  0
   -3.8364   -1.8324    0.7432 C   0  0  0  0  0  0  0  0  0  0  0  0
   -6.3512    2.2348   -1.3103 C   0  0  0  0  0  0  0  0  0  0  0  0
   -7.0972    1.3502   -0.5316 C   0  0  0  0  0  0  0  0  0  0  0  0
   -2.4841   -2.1533    0.8608 C   0  0  0  0  0  0  0  0  0  0  0  0
   -4.4931   -2.0145   -0.4739 C   0  0  0  0  0  0  0  0  0  0  0  0
   -1.7885   -2.6565   -0.2385 C   0  0  0  0  0  0  0  0  0  0  0  0
   -3.7975   -2.5176   -1.5733 C   0  0  0  0  0  0  0  0  0  0  0  0
   -2.4453   -2.8386   -1.4556 C   0  0  0  0  0  0  0  0  0  0  0  0
    0.1402   -2.7595    1.1491 C   0  0  0  0  0  0  0  0  0  0  0  0
    2.5435    0.3455   -2.1627 H   0  0  0  0  0  0  0  0  0  0  0  0
    1.7395   -1.0847   -1.5008 H   0  0  0  0  0  0  0  0  0  0  0  0
    1.6490    2.5257    0.6713 H   0  0  0  0  0  0  0  0  0  0  0  0
    2.4890    2.4647   -0.8800 H   0  0  0  0  0  0  0  0  0  0  0  0
    3.3494   -1.2798    0.3134 H   0  0  0  0  0  0  0  0  0  0  0  0
    4.1830   -1.1923   -1.2394 H   0  0  0  0  0  0  0  0  0  0  0  0
    4.0893    2.4359    0.9293 H   0  0  0  0  0  0  0  0  0  0  0  0
    3.2721    1.0794    1.7342 H   0  0  0  0  0  0  0  0  0  0  0  0
    0.3697    1.8468   -1.7452 H   0  0  0  0  0  0  0  0  0  0  0  0
   -0.1582    0.1774   -1.5821 H   0  0  0  0  0  0  0  0  0  0  0  0
   -0.9895    0.5689    0.7135 H   0  0  0  0  0  0  0  0  0  0  0  0
   -0.5146    2.2482    0.6369 H   0  0  0  0  0  0  0  0  0  0  0  0
   -2.5028    0.9215   -1.2542 H   0  0  0  0  0  0  0  0  0  0  0  0
   -2.0259    2.6379   -1.2915 H   0  0  0  0  0  0  0  0  0  0  0  0
    6.1762   -0.1088   -1.8014 H   0  0  0  0  0  0  0  0  0  0  0  0
    5.5282    0.9100    2.3467 H   0  0  0  0  0  0  0  0  0  0  0  0
    7.9263    0.6733    2.7772 H   0  0  0  0  0  0  0  0  0  0  0  0
   -3.5057    0.5594    2.1786 H   0  0  0  0  0  0  0  0  0  0  0  0
   -5.0791    0.5610    2.9354 H   0  0  0  0  0  0  0  0  0  0  0  0
    9.4721    0.0342    0.9628 H   0  0  0  0  0  0  0  0  0  0  0  0
   -5.6244   -1.6522    1.9046 H   0  0  0  0  0  0  0  0  0  0  0  0
   -4.1645   -1.7106    2.8527 H   0  0  0  0  0  0  0  0  0  0  0  0
   -4.4463    3.1735   -1.6143 H   0  0  0  0  0  0  0  0  0  0  0  0
   -7.1048    0.0300    1.1561 H   0  0  0  0  0  0  0  0  0  0  0  0
   -6.8140    2.7380   -2.1542 H   0  0  0  0  0  0  0  0  0  0  0  0
   -8.1407    1.1652   -0.7689 H   0  0  0  0  0  0  0  0  0  0  0  0
   -2.0229   -1.9882    1.8290 H   0  0  0  0  0  0  0  0  0  0  0  0
   -5.5496   -1.7876   -0.5809 H   0  0  0  0  0  0  0  0  0  0  0  0
   -4.3096   -2.6626   -2.5200 H   0  0  0  0  0  0  0  0  0  0  0  0
   -1.9086   -3.2303   -2.3154 H   0  0  0  0  0  0  0  0  0  0  0  0
    1.1896   -3.0582    1.0574 H   0  0  0  0  0  0  0  0  0  0  0  0
   -0.3074   -3.3959    1.9199 H   0  0  0  0  0  0  0  0  0  0  0  0
    0.1346   -1.7009    1.4293 H   0  0  0  0  0  0  0  0  0  0  0  0
  1 16  1  0  0  0  0
  2 13  1  0  0  0  0
  2 18  1  0  0  0  0
  3 30  1  0  0  0  0
  3 33  1  0  0  0  0
  4  6  1  0  0  0  0
  4  7  1  0  0  0  0
  4 10  1  0  0  0  0
  5  8  1  0  0  0  0
  5  9  1  0  0  0  0
  5 12  1  0  0  0  0
  6  8  1  0  0  0  0
  6 34  1  0  0  0  0
  6 35  1  0  0  0  0
  7  9  1  0  0  0  0
  7 36  1  0  0  0  0
  7 37  1  0  0  0  0
  8 38  1  0  0  0  0
  8 39  1  0  0  0  0
  9 40  1  0  0  0  0
  9 41  1  0  0  0  0
 10 11  1  0  0  0  0
 10 42  1  0  0  0  0
 10 43  1  0  0  0  0
 11 13  1  0  0  0  0
 11 44  1  0  0  0  0
 11 45  1  0  0  0  0
 12 14  2  0  0  0  0
 12 15  1  0  0  0  0
 13 46  1  0  0  0  0
 13 47  1  0  0  0  0
 14 16  1  0  0  0  0
 14 48  1  0  0  0  0
 15 17  2  0  0  0  0
 15 49  1  0  0  0  0
 16 21  2  0  0  0  0
 17 21  1  0  0  0  0
 17 50  1  0  0  0  0
 18 19  1  0  0  0  0
 18 23  2  0  0  0  0
 19 20  1  0  0  0  0
 19 24  2  0  0  0  0
 20 22  1  0  0  0  0
 20 51  1  0  0  0  0
 20 52  1  0  0  0  0
 21 53  1  0  0  0  0
 22 25  1  0  0  0  0
 22 54  1  0  0  0  0
 22 55  1  0  0  0  0
 23 26  1  0  0  0  0
 23 56  1  0  0  0  0
 24 27  1  0  0  0  0
 24 57  1  0  0  0  0
 25 28  2  0  0  0  0
 25 29  1  0  0  0  0
 26 27  2  0  0  0  0
 26 58  1  0  0  0  0
 27 59  1  0  0  0  0
 28 30  1  0  0  0  0
 28 60  1  0  0  0  0
 29 31  2  0  0  0  0
 29 61  1  0  0  0  0
 30 32  2  0  0  0  0
 31 32  1  0  0  0  0
 31 62  1  0  0  0  0
 32 63  1  0  0  0  0
 33 64  1  0  0  0  0
 33 65  1  0  0  0  0
 33 66  1  0  0  0  0
M  END
> <PUBCHEM_COMPOUND_CID>
25155850

> <PUBCHEM_CONFORMER_RMSD>
1.6

> <PUBCHEM_CONFORMER_DIVERSEORDER>
2
1
82
35
24
55
6
78
77
92
95
90
51
99
30
73
27
67
47
49
31
28
91
86
46
38
96
93
88
69
84
64
21
12
16
61
40
37
23
4
83
48
94
29
33
8
58
53
15
32
36
80
85
20
44
68
41
50
14
19
57
71
97
18
25
11
89
66
45
65
75
87
43
63
39
52
17
9
56
79
7
10
98
59
62
13
76
74
26
81
3
34
5
60
42
72
22
54
70

> <PUBCHEM_MMFF94_PARTIAL_CHARGES>
44
1 -0.18
10 0.27
12 0.1
13 0.28
14 -0.15
15 -0.15
16 0.18
17 -0.15
18 0.08
19 -0.14
2 -0.36
20 0.14
21 -0.15
22 0.14
23 -0.15
24 -0.15
25 -0.14
26 -0.15
27 -0.15
28 -0.15
29 -0.15
3 -0.36
30 0.08
31 -0.15
32 -0.15
33 0.28
4 -0.81
48 0.15
49 0.15
5 -0.84
50 0.15
53 0.15
56 0.15
57 0.15
58 0.15
59 0.15
6 0.27
60 0.15
61 0.15
62 0.15
63 0.15
7 0.27
8 0.37
9 0.37

> <PUBCHEM_EFFECTIVE_ROTOR_COUNT>
11.2

> <PUBCHEM_PHARMACOPHORE_FEATURES>
8
1 2 acceptor
1 3 acceptor
1 4 cation
1 5 cation
6 12 14 15 16 17 21 rings
6 18 19 23 24 26 27 rings
6 25 28 29 30 31 32 rings
6 4 5 6 7 8 9 rings

> <PUBCHEM_HEAVY_ATOM_COUNT>
33

> <PUBCHEM_ATOM_DEF_STEREO_COUNT>
0

> <PUBCHEM_ATOM_UDEF_STEREO_COUNT>
0

> <PUBCHEM_BOND_DEF_STEREO_COUNT>
0

> <PUBCHEM_BOND_UDEF_STEREO_COUNT>
0

> <PUBCHEM_ISOTOPIC_ATOM_COUNT>
0

> <PUBCHEM_COMPONENT_COUNT>
1

> <PUBCHEM_CACTVS_TAUTO_COUNT>
1

> <PUBCHEM_CONFORMER_ID>
017FD90A00000002

> <PUBCHEM_MMFF94_ENERGY>
107.5345

> <PUBCHEM_FEATURE_SELFOVERLAP>
40.6

> <PUBCHEM_SHAPE_FINGERPRINT>
10462385 53 18059568062275088822
10674148 151 18260548940427293890
11136131 41 18115865196659652363
11524674 6 18343579638349845965
12522641 33 18115015292321434829
12655364 131 15194741012744222942
12838862 33 18336815421689409213
14394314 77 18340487764851784129
15021287 119 17530971297323271052
15183329 4 17458337577063132834
15439362 3 17900535684825648973
20721686 146 14708031174967173957
20721686 56 18261678091155439731
21033648 29 17560219428557571034
249057 3 18408039619503406420
3298306 158 18334294224552725933
3383291 50 18341615945338391731
397830 11 18059284496288023664
4017518 198 18343582915151969639
484985 159 17822567326529695723
5265222 85 18262524800528001556
6086070 43 17417802972386877162
6669772 16 18272091530968791559

> <PUBCHEM_SHAPE_MULTIPOLES>
659.29
24.53
3.23
1.67
45.63
1.89
-0.25
-7.04
0.19
-6.2
0.62
0.25
0.36
1.43

> <PUBCHEM_SHAPE_SELFOVERLAP>
1388

> <PUBCHEM_SHAPE_VOLUME>
372

> <PUBCHEM_COORDINATE_TYPE>
2
5
10

$$$$