25158435
  -OEChem-03242010103D

 73 76  0     0  0  0  0  0  0999 V2000
   -3.3762    2.0747    0.5306 O   0  0  0  0  0  0  0  0  0  0  0  0
    3.2922   -1.5620   -0.2740 O   0  0  0  0  0  0  0  0  0  0  0  0
   -0.6404   -2.7062   -2.0058 O   0  0  0  0  0  0  0  0  0  0  0  0
    1.1401    2.9405    0.1178 N   0  0  0  0  0  0  0  0  0  0  0  0
    3.4242    1.2329   -0.0452 N   0  0  0  0  0  0  0  0  0  0  0  0
    2.0962    3.0815   -0.9871 C   0  0  0  0  0  0  0  0  0  0  0  0
    1.0432    1.5311    0.5174 C   0  0  0  0  0  0  0  0  0  0  0  0
    3.4890    2.5985   -0.5747 C   0  0  0  0  0  0  0  0  0  0  0  0
    2.4006    0.9972    0.9808 C   0  0  0  0  0  0  0  0  0  0  0  0
   -0.1726    3.4548   -0.2707 C   0  0  0  0  0  0  0  0  0  0  0  0
   -1.0168    3.7457    0.9688 C   0  0  0  0  0  0  0  0  0  0  0  0
    4.5803    0.4451   -0.0138 C   0  0  0  0  0  0  0  0  0  0  0  0
   -2.3972    4.2762    0.5849 C   0  0  0  0  0  0  0  0  0  0  0  0
   -3.1830    3.2587   -0.2317 C   0  0  0  0  0  0  0  0  0  0  0  0
    4.4974   -0.9424   -0.1293 C   0  0  0  0  0  0  0  0  0  0  0  0
    5.8238    1.0597    0.1332 C   0  0  0  0  0  0  0  0  0  0  0  0
    5.6581   -1.7154   -0.0976 C   0  0  0  0  0  0  0  0  0  0  0  0
    6.9845    0.2869    0.1647 C   0  0  0  0  0  0  0  0  0  0  0  0
    6.9015   -1.1007    0.0494 C   0  0  0  0  0  0  0  0  0  0  0  0
   -4.0534    1.0508   -0.0788 C   0  0  0  0  0  0  0  0  0  0  0  0
   -4.2884   -0.1486    0.5933 C   0  0  0  0  0  0  0  0  0  0  0  0
   -3.8093   -0.3449    1.9936 C   0  0  0  0  0  0  0  0  0  0  0  0
   -2.2960   -0.6125    2.1063 C   0  0  0  0  0  0  0  0  0  0  0  0
   -4.5086    1.2179   -1.3867 C   0  0  0  0  0  0  0  0  0  0  0  0
    3.3042   -2.9837   -0.3846 C   0  0  0  0  0  0  0  0  0  0  0  0
   -4.9786   -1.1807   -0.0423 C   0  0  0  0  0  0  0  0  0  0  0  0
   -1.8482   -1.8298    1.3344 C   0  0  0  0  0  0  0  0  0  0  0  0
   -5.1987    0.1858   -2.0223 C   0  0  0  0  0  0  0  0  0  0  0  0
   -5.4336   -1.0136   -1.3502 C   0  0  0  0  0  0  0  0  0  0  0  0
   -1.4469   -1.7039    0.0045 C   0  0  0  0  0  0  0  0  0  0  0  0
   -1.8355   -3.0807    1.9513 C   0  0  0  0  0  0  0  0  0  0  0  0
   -1.0327   -2.8289   -0.7084 C   0  0  0  0  0  0  0  0  0  0  0  0
   -1.4214   -4.2058    1.2385 C   0  0  0  0  0  0  0  0  0  0  0  0
   -1.0200   -4.0798   -0.0915 C   0  0  0  0  0  0  0  0  0  0  0  0
   -0.6779   -1.3982   -2.5748 C   0  0  0  0  0  0  0  0  0  0  0  0
    2.1778    4.1339   -1.2851 H   0  0  0  0  0  0  0  0  0  0  0  0
    1.7563    2.5177   -1.8665 H   0  0  0  0  0  0  0  0  0  0  0  0
    0.6755    0.9150   -0.3133 H   0  0  0  0  0  0  0  0  0  0  0  0
    0.3493    1.4004    1.3523 H   0  0  0  0  0  0  0  0  0  0  0  0
    4.1378    2.6425   -1.4584 H   0  0  0  0  0  0  0  0  0  0  0  0
    3.9008    3.2754    0.1849 H   0  0  0  0  0  0  0  0  0  0  0  0
    2.7034    1.5088    1.9043 H   0  0  0  0  0  0  0  0  0  0  0  0
    2.2821   -0.0591    1.2390 H   0  0  0  0  0  0  0  0  0  0  0  0
   -0.0581    4.4007   -0.8164 H   0  0  0  0  0  0  0  0  0  0  0  0
   -0.6534    2.7504   -0.9566 H   0  0  0  0  0  0  0  0  0  0  0  0
   -0.5120    4.4987    1.5876 H   0  0  0  0  0  0  0  0  0  0  0  0
   -1.1420    2.8598    1.5989 H   0  0  0  0  0  0  0  0  0  0  0  0
   -2.3006    5.2109    0.0208 H   0  0  0  0  0  0  0  0  0  0  0  0
   -2.9449    4.5026    1.5076 H   0  0  0  0  0  0  0  0  0  0  0  0
   -4.1581    3.7145   -0.4488 H   0  0  0  0  0  0  0  0  0  0  0  0
   -2.6684    3.0591   -1.1764 H   0  0  0  0  0  0  0  0  0  0  0  0
    5.9275    2.1354    0.2413 H   0  0  0  0  0  0  0  0  0  0  0  0
    5.6729   -2.7965   -0.1808 H   0  0  0  0  0  0  0  0  0  0  0  0
    7.9527    0.7647    0.2828 H   0  0  0  0  0  0  0  0  0  0  0  0
    7.8060   -1.7016    0.0752 H   0  0  0  0  0  0  0  0  0  0  0  0
   -4.0640    0.5385    2.5934 H   0  0  0  0  0  0  0  0  0  0  0  0
   -4.3556   -1.1750    2.4616 H   0  0  0  0  0  0  0  0  0  0  0  0
   -2.0315   -0.7341    3.1646 H   0  0  0  0  0  0  0  0  0  0  0  0
   -1.7297    0.2613    1.7631 H   0  0  0  0  0  0  0  0  0  0  0  0
   -4.3737    2.1200   -1.9726 H   0  0  0  0  0  0  0  0  0  0  0  0
   -5.1682   -2.1222    0.4666 H   0  0  0  0  0  0  0  0  0  0  0  0
    2.2638   -3.3062   -0.4938 H   0  0  0  0  0  0  0  0  0  0  0  0
    3.6880   -3.4567    0.5257 H   0  0  0  0  0  0  0  0  0  0  0  0
    3.8339   -3.3150   -1.2843 H   0  0  0  0  0  0  0  0  0  0  0  0
   -5.5549    0.3152   -3.0403 H   0  0  0  0  0  0  0  0  0  0  0  0
   -5.9703   -1.8175   -1.8455 H   0  0  0  0  0  0  0  0  0  0  0  0
   -1.4642   -0.7079   -0.4244 H   0  0  0  0  0  0  0  0  0  0  0  0
   -2.1478   -3.1916    2.9862 H   0  0  0  0  0  0  0  0  0  0  0  0
   -1.4117   -5.1799    1.7187 H   0  0  0  0  0  0  0  0  0  0  0  0
   -0.6978   -4.9596   -0.6417 H   0  0  0  0  0  0  0  0  0  0  0  0
   -0.3436   -1.4886   -3.6135 H   0  0  0  0  0  0  0  0  0  0  0  0
    0.0218   -0.7220   -2.0729 H   0  0  0  0  0  0  0  0  0  0  0  0
   -1.6973   -0.9982   -2.6015 H   0  0  0  0  0  0  0  0  0  0  0  0
  1 14  1  0  0  0  0
  1 20  1  0  0  0  0
  2 15  1  0  0  0  0
  2 25  1  0  0  0  0
  3 32  1  0  0  0  0
  3 35  1  0  0  0  0
  4  6  1  0  0  0  0
  4  7  1  0  0  0  0
  4 10  1  0  0  0  0
  5  8  1  0  0  0  0
  5  9  1  0  0  0  0
  5 12  1  0  0  0  0
  6  8  1  0  0  0  0
  6 36  1  0  0  0  0
  6 37  1  0  0  0  0
  7  9  1  0  0  0  0
  7 38  1  0  0  0  0
  7 39  1  0  0  0  0
  8 40  1  0  0  0  0
  8 41  1  0  0  0  0
  9 42  1  0  0  0  0
  9 43  1  0  0  0  0
 10 11  1  0  0  0  0
 10 44  1  0  0  0  0
 10 45  1  0  0  0  0
 11 13  1  0  0  0  0
 11 46  1  0  0  0  0
 11 47  1  0  0  0  0
 12 15  1  0  0  0  0
 12 16  2  0  0  0  0
 13 14  1  0  0  0  0
 13 48  1  0  0  0  0
 13 49  1  0  0  0  0
 14 50  1  0  0  0  0
 14 51  1  0  0  0  0
 15 17  2  0  0  0  0
 16 18  1  0  0  0  0
 16 52  1  0  0  0  0
 17 19  1  0  0  0  0
 17 53  1  0  0  0  0
 18 19  2  0  0  0  0
 18 54  1  0  0  0  0
 19 55  1  0  0  0  0
 20 21  1  0  0  0  0
 20 24  2  0  0  0  0
 21 22  1  0  0  0  0
 21 26  2  0  0  0  0
 22 23  1  0  0  0  0
 22 56  1  0  0  0  0
 22 57  1  0  0  0  0
 23 27  1  0  0  0  0
 23 58  1  0  0  0  0
 23 59  1  0  0  0  0
 24 28  1  0  0  0  0
 24 60  1  0  0  0  0
 25 62  1  0  0  0  0
 25 63  1  0  0  0  0
 25 64  1  0  0  0  0
 26 29  1  0  0  0  0
 26 61  1  0  0  0  0
 27 30  2  0  0  0  0
 27 31  1  0  0  0  0
 28 29  2  0  0  0  0
 28 65  1  0  0  0  0
 29 66  1  0  0  0  0
 30 32  1  0  0  0  0
 30 67  1  0  0  0  0
 31 33  2  0  0  0  0
 31 68  1  0  0  0  0
 32 34  2  0  0  0  0
 33 34  1  0  0  0  0
 33 69  1  0  0  0  0
 34 70  1  0  0  0  0
 35 71  1  0  0  0  0
 35 72  1  0  0  0  0
 35 73  1  0  0  0  0
M  END
> <PUBCHEM_COMPOUND_CID>
25158435

> <PUBCHEM_CONFORMER_RMSD>
1.8

> <PUBCHEM_CONFORMER_DIVERSEORDER>
12
70
75
7
74
3
45
83
67
61
34
32
88
4
57
35
11
38
47
42
14
87
84
85
13
20
76
5
28
60
78
49
29
63
31
72
50
55
36
52
8
53
82
58
73
18
6
59
65
46
64
1
40
19
23
25
86
10
30
69
43
81
9
2
44
24
17
39
33
48
22
26
77
68
27
16
37
80
21
54
56
62
71
79
51
41
15
66

> <PUBCHEM_MMFF94_PARTIAL_CHARGES>
45
1 -0.36
10 0.27
12 0.1
14 0.28
15 0.08
16 -0.15
17 -0.15
18 -0.15
19 -0.15
2 -0.36
20 0.08
21 -0.14
22 0.14
23 0.14
24 -0.15
25 0.28
26 -0.15
27 -0.14
28 -0.15
29 -0.15
3 -0.36
30 -0.15
31 -0.15
32 0.08
33 -0.15
34 -0.15
35 0.28
4 -0.81
5 -0.84
52 0.15
53 0.15
54 0.15
55 0.15
6 0.27
60 0.15
61 0.15
65 0.15
66 0.15
67 0.15
68 0.15
69 0.15
7 0.27
70 0.15
8 0.37
9 0.37

> <PUBCHEM_EFFECTIVE_ROTOR_COUNT>
13.2

> <PUBCHEM_PHARMACOPHORE_FEATURES>
9
1 1 acceptor
1 2 acceptor
1 3 acceptor
1 4 cation
1 5 cation
6 12 15 16 17 18 19 rings
6 20 21 24 26 28 29 rings
6 27 30 31 32 33 34 rings
6 4 5 6 7 8 9 rings

> <PUBCHEM_HEAVY_ATOM_COUNT>
35

> <PUBCHEM_ATOM_DEF_STEREO_COUNT>
0

> <PUBCHEM_ATOM_UDEF_STEREO_COUNT>
0

> <PUBCHEM_BOND_DEF_STEREO_COUNT>
0

> <PUBCHEM_BOND_UDEF_STEREO_COUNT>
0

> <PUBCHEM_ISOTOPIC_ATOM_COUNT>
0

> <PUBCHEM_COMPONENT_COUNT>
1

> <PUBCHEM_CACTVS_TAUTO_COUNT>
1

> <PUBCHEM_CONFORMER_ID>
017FE3230000000C

> <PUBCHEM_MMFF94_ENERGY>
123.8274

> <PUBCHEM_FEATURE_SELFOVERLAP>
45.675

> <PUBCHEM_SHAPE_FINGERPRINT>
10653451 467 18043261339286226355
11513181 2 18128257774872292558
11756154 5 18335418023191737657
12788726 201 18339350886374744488
13165053 137 18271524204649715775
14279260 333 17822291254779736170
14725015 67 18411697695332400369
15320467 1 18410295813505965514
15439362 3 17615967708211704505
15664445 248 15748951725510170865
15927050 60 17979916008855969225
17627616 140 17972030336624052907
19958102 18 18261107444303898260
20764821 26 18194135026893019413
20775438 99 17263245907455750319
21133410 90 16629675305387193611
3383291 50 18408880771863443011
354706 109 18266438959113039088
3729539 64 18338230587695943009
373842 8 18409732893575058876
437795 96 18196644306075796552
45266715 3 18053913381569618921
469060 322 11095606757224584695
5171179 24 17625839166507617230
6376802 137 17846778511673836921
6431902 208 18411136918020462036

> <PUBCHEM_SHAPE_MULTIPOLES>
692.71
13.99
5.75
1.74
17.98
0.98
-0.26
-0.72
-1.99
-2.27
0.73
-2.4
-0.91
0.39

> <PUBCHEM_SHAPE_SELFOVERLAP>
1463.177

> <PUBCHEM_SHAPE_VOLUME>
388.1

> <PUBCHEM_COORDINATE_TYPE>
2
5
10

$$$$