132
 OpenBabel03292022003D

116124  0  0  1  0  0  0  0  0999 V2000
    6.0263    1.3279  -11.4106 C   0  0  0  0  0  0  0  0  0  0  0  0
    6.3762    1.1716  -10.1276 C   0  0  0  0  0  0  0  0  0  0  0  0
    7.1247    2.2128   -9.3293 C   0  0  1  0  0  0  0  0  0  0  0  0
    6.2910    2.7375   -8.1356 C   0  0  0  0  0  0  0  0  0  0  0  0
    7.0082    2.6437   -6.8435 N   0  0  3  0  0  0  0  0  0  0  0  0
    8.2464    3.4584   -6.9823 C   0  0  0  0  0  0  0  0  0  0  0  0
    9.1582    2.9324   -8.1041 C   0  0  0  0  0  0  0  0  0  0  0  0
    8.4873    1.7247   -8.7828 C   0  0  1  0  0  0  0  0  0  0  0  0
    8.2711    0.6575   -7.6953 C   0  0  0  0  0  0  0  0  0  0  0  0
    7.3944    1.2176   -6.5489 C   0  0  1  0  0  0  0  0  0  0  0  0
    6.1995    0.2786   -6.1138 C   0  0  2  0  0  0  0  0  0  0  0  0
    5.2495    0.0724   -7.1972 O   0  0  0  0  0  0  0  0  0  0  0  0
    3.9430   -0.0766   -6.8148 C   0  0  0  0  0  0  0  0  0  0  0  0
    3.5407   -0.0142   -5.6699 O   0  0  0  0  0  0  0  0  0  0  0  0
    3.0466   -0.3400   -8.0096 C   0  0  0  0  0  0  0  0  0  0  0  0
    2.3465    0.9091   -8.5297 C   0  0  0  0  0  0  0  0  0  0  0  0
    1.4182    1.5313   -7.5529 C   0  0  0  0  0  0  0  0  0  0  0  0
    1.6779    2.4868   -6.5977 C   0  0  0  0  0  0  0  0  0  0  0  0
    0.4963    2.6336   -5.9387 N   0  0  0  0  0  0  0  0  0  0  0  0
    0.2272    3.3354   -4.7025 C   0  0  0  0  0  0  0  0  0  0  0  0
    1.1996    4.4478   -4.3420 C   0  0  0  0  0  0  0  0  0  0  0  0
    1.1710    5.6030   -5.3185 C   0  0  0  0  0  0  0  0  0  0  0  0
    0.1645    6.2241   -5.6180 O   0  0  0  0  0  0  0  0  0  0  0  0
    2.4381    5.8755   -5.7338 O   0  0  0  0  0  0  0  0  0  0  0  0
    2.6844    7.0630   -6.5444 C   0  0  2  0  0  0  0  0  0  0  0  0
    2.9570    6.6080   -7.9886 C   0  0  0  0  0  0  0  0  0  0  0  0
    3.4739    5.3166   -8.1857 C   0  0  0  0  0  0  0  0  0  0  0  0
    3.6463    4.8311   -9.4631 C   0  0  0  0  0  0  0  0  0  0  0  0
    3.3628    5.5323  -10.5648 N   0  0  0  0  0  0  0  0  0  0  0  0
    2.9067    6.7744  -10.4104 C   0  0  0  0  0  0  0  0  0  0  0  0
    2.6406    7.4580  -11.5804 C   0  0  0  0  0  0  0  0  0  0  0  0
    2.2056    8.7782  -11.5785 C   0  0  0  0  0  0  0  0  0  0  0  0
    2.0397    9.4456  -10.3725 C   0  0  0  0  0  0  0  0  0  0  0  0
    1.6745   10.7605  -10.2535 O   0  0  0  0  0  0  0  0  0  0  0  0
    1.4900   11.4799  -11.4722 C   0  0  0  0  0  0  0  0  0  0  0  0
    2.2646    8.7555   -9.1671 C   0  0  0  0  0  0  0  0  0  0  0  0
    2.6991    7.4019   -9.1496 C   0  0  0  0  0  0  0  0  0  0  0  0
    3.8878    7.8690   -5.9098 C   0  0  2  0  0  0  0  0  0  0  0  0
    5.2300    7.0851   -5.8543 C   0  0  0  0  0  0  0  0  0  0  0  0
    5.8117    7.1007   -4.4274 C   0  0  2  0  0  0  0  0  0  0  0  0
    4.7257    6.4982   -3.5199 C   0  0  0  0  0  0  0  0  0  0  0  0
    3.5235    7.4523   -3.4925 C   0  0  0  0  0  0  0  0  0  0  0  0
    3.6061    8.4778   -4.5585 N   0  0  3  0  0  0  0  0  0  0  0  0
    4.7542    9.3663   -4.2093 C   0  0  0  0  0  0  0  0  0  0  0  0
    6.0543    8.5553   -3.9574 C   0  0  2  0  0  0  0  0  0  0  0  0
    7.2593    9.1798   -4.6189 C   0  0  0  0  0  0  0  0  0  0  0  0
    8.3726    9.5351   -3.9649 C   0  0  0  0  0  0  0  0  0  0  0  0
   -0.4548    1.8507   -6.4795 N   0  0  0  0  0  0  0  0  0  0  0  0
    0.1009    1.1696   -7.4744 N   0  0  0  0  0  0  0  0  0  0  0  0
    6.6693   -1.0910   -5.5980 C   0  0  0  0  0  0  0  0  0  0  0  0
    6.7665   -2.1676   -6.4948 C   0  0  0  0  0  0  0  0  0  0  0  0
    7.1030   -3.4186   -6.0185 C   0  0  0  0  0  0  0  0  0  0  0  0
    7.3144   -3.6890   -4.7189 N   0  0  0  0  0  0  0  0  0  0  0  0
    7.2024   -2.6832   -3.8413 C   0  0  0  0  0  0  0  0  0  0  0  0
    7.3310   -2.9954   -2.4964 C   0  0  0  0  0  0  0  0  0  0  0  0
    7.2075   -2.0297   -1.4950 C   0  0  0  0  0  0  0  0  0  0  0  0
    6.9993   -0.7037   -1.8474 C   0  0  0  0  0  0  0  0  0  0  0  0
    6.8695    0.3453   -0.9818 O   0  0  0  0  0  0  0  0  0  0  0  0
    6.6337    0.0194    0.3832 C   0  0  0  0  0  0  0  0  0  0  0  0
    6.8951   -0.3651   -3.2000 C   0  0  0  0  0  0  0  0  0  0  0  0
    6.9296   -1.3453   -4.2206 C   0  0  0  0  0  0  0  0  0  0  0  0
    5.4748    0.5550  -11.9377 H   0  0  0  0  0  0  0  0  0  0  0  0
    6.2793    2.2247  -11.9688 H   0  0  0  0  0  0  0  0  0  0  0  0
    6.0914    0.2505   -9.6260 H   0  0  0  0  0  0  0  0  0  0  0  0
    7.3263    3.0670   -9.9919 H   0  0  0  0  0  0  0  0  0  0  0  0
    5.3085    2.2656   -8.0661 H   0  0  0  0  0  0  0  0  0  0  0  0
    6.0663    3.7958   -8.3156 H   0  0  0  0  0  0  0  0  0  0  0  0
    8.7907    3.4847   -6.0313 H   0  0  0  0  0  0  0  0  0  0  0  0
    7.9760    4.5031   -7.1892 H   0  0  0  0  0  0  0  0  0  0  0  0
   10.1326    2.6444   -7.6929 H   0  0  0  0  0  0  0  0  0  0  0  0
    9.3414    3.7229   -8.8425 H   0  0  0  0  0  0  0  0  0  0  0  0
    9.1230    1.3331   -9.5847 H   0  0  0  0  0  0  0  0  0  0  0  0
    9.2478    0.3711   -7.2811 H   0  0  0  0  0  0  0  0  0  0  0  0
    7.8482   -0.2415   -8.1456 H   0  0  0  0  0  0  0  0  0  0  0  0
    8.0364    1.2710   -5.6565 H   0  0  0  0  0  0  0  0  0  0  0  0
    5.6765    0.8065   -5.3085 H   0  0  0  0  0  0  0  0  0  0  0  0
    2.3186   -1.1042   -7.7129 H   0  0  0  0  0  0  0  0  0  0  0  0
    3.6461   -0.7874   -8.8108 H   0  0  0  0  0  0  0  0  0  0  0  0
    1.7753    0.6436   -9.4288 H   0  0  0  0  0  0  0  0  0  0  0  0
    3.0877    1.6515   -8.8439 H   0  0  0  0  0  0  0  0  0  0  0  0
    2.5849    2.9939   -6.3156 H   0  0  0  0  0  0  0  0  0  0  0  0
    0.2678    2.5668   -3.9194 H   0  0  0  0  0  0  0  0  0  0  0  0
   -0.8006    3.7115   -4.7489 H   0  0  0  0  0  0  0  0  0  0  0  0
    2.2195    4.0530   -4.2635 H   0  0  0  0  0  0  0  0  0  0  0  0
    0.9531    4.8511   -3.3525 H   0  0  0  0  0  0  0  0  0  0  0  0
    1.7929    7.7016   -6.5360 H   0  0  0  0  0  0  0  0  0  0  0  0
    3.7468    4.6795   -7.3524 H   0  0  0  0  0  0  0  0  0  0  0  0
    4.0286    3.8336   -9.6433 H   0  0  0  0  0  0  0  0  0  0  0  0
    2.7814    6.9452  -12.5296 H   0  0  0  0  0  0  0  0  0  0  0  0
    2.0199    9.2464  -12.5388 H   0  0  0  0  0  0  0  0  0  0  0  0
    1.2911   12.5261  -11.2234 H   0  0  0  0  0  0  0  0  0  0  0  0
    0.6247   11.0956  -12.0234 H   0  0  0  0  0  0  0  0  0  0  0  0
    2.3915   11.4587  -12.0959 H   0  0  0  0  0  0  0  0  0  0  0  0
    2.1128    9.2992   -8.2363 H   0  0  0  0  0  0  0  0  0  0  0  0
    4.0434    8.7161   -6.5936 H   0  0  0  0  0  0  0  0  0  0  0  0
    5.9423    7.5319   -6.5579 H   0  0  0  0  0  0  0  0  0  0  0  0
    5.1093    6.0421   -6.1554 H   0  0  0  0  0  0  0  0  0  0  0  0
    6.7273    6.4999   -4.3793 H   0  0  0  0  0  0  0  0  0  0  0  0
    5.1110    6.3498   -2.5046 H   0  0  0  0  0  0  0  0  0  0  0  0
    4.4273    5.5122   -3.8962 H   0  0  0  0  0  0  0  0  0  0  0  0
    3.4746    7.9477   -2.5133 H   0  0  0  0  0  0  0  0  0  0  0  0
    2.5850    6.8996   -3.5454 H   0  0  0  0  0  0  0  0  0  0  0  0
    4.5026    9.9292   -3.3002 H   0  0  0  0  0  0  0  0  0  0  0  0
    4.8848   10.1267   -4.9890 H   0  0  0  0  0  0  0  0  0  0  0  0
    6.2302    8.5278   -2.8717 H   0  0  0  0  0  0  0  0  0  0  0  0
    7.2120    9.3465   -5.6936 H   0  0  0  0  0  0  0  0  0  0  0  0
    8.4803    9.3937   -2.8936 H   0  0  0  0  0  0  0  0  0  0  0  0
    9.2112    9.9788   -4.4942 H   0  0  0  0  0  0  0  0  0  0  0  0
    6.5562   -2.0525   -7.5530 H   0  0  0  0  0  0  0  0  0  0  0  0
    7.1888   -4.2712   -6.6866 H   0  0  0  0  0  0  0  0  0  0  0  0
    7.5040   -4.0332   -2.2160 H   0  0  0  0  0  0  0  0  0  0  0  0
    7.2815   -2.3500   -0.4612 H   0  0  0  0  0  0  0  0  0  0  0  0
    6.3065    0.9324    0.8900 H   0  0  0  0  0  0  0  0  0  0  0  0
    7.5572   -0.3215    0.8614 H   0  0  0  0  0  0  0  0  0  0  0  0
    5.8344   -0.7215    0.4953 H   0  0  0  0  0  0  0  0  0  0  0  0
    6.7562    0.6857   -3.4401 H   0  0  0  0  0  0  0  0  0  0  0  0
  1  2  2  0  0  0  0
  1 62  1  0  0  0  0
  1 63  1  0  0  0  0
  2 64  1  0  0  0  0
  3  4  1  0  0  0  0
  3  8  1  0  0  0  0
  3  2  1  0  0  0  0
  3 65  1  6  0  0  0
  4  5  1  0  0  0  0
  4 66  1  0  0  0  0
  4 67  1  0  0  0  0
  5  6  1  0  0  0  0
  5 10  1  0  0  0  0
  6  7  1  0  0  0  0
  6 68  1  0  0  0  0
  6 69  1  0  0  0  0
  7  8  1  0  0  0  0
  7 70  1  0  0  0  0
  7 71  1  0  0  0  0
  8  9  1  0  0  0  0
  8 72  1  6  0  0  0
  9 10  1  0  0  0  0
  9 73  1  0  0  0  0
  9 74  1  0  0  0  0
 10 11  1  0  0  0  0
 10 75  1  6  0  0  0
 11 50  1  0  0  0  0
 11 12  1  0  0  0  0
 11 76  1  6  0  0  0
 12 13  1  0  0  0  0
 13 14  2  0  0  0  0
 13 15  1  0  0  0  0
 15 16  1  0  0  0  0
 15 77  1  0  0  0  0
 15 78  1  0  0  0  0
 16 17  1  0  0  0  0
 16 79  1  0  0  0  0
 16 80  1  0  0  0  0
 17 18  2  0  0  0  0
 17 49  1  0  0  0  0
 18 19  1  0  0  0  0
 18 81  1  0  0  0  0
 19 20  1  0  0  0  0
 19 48  1  0  0  0  0
 20 21  1  0  0  0  0
 20 82  1  0  0  0  0
 20 83  1  0  0  0  0
 21 22  1  0  0  0  0
 21 84  1  0  0  0  0
 21 85  1  0  0  0  0
 22 23  2  0  0  0  0
 22 24  1  0  0  0  0
 25 38  1  0  0  0  0
 25 26  1  0  0  0  0
 25 24  1  0  0  0  0
 25 86  1  1  0  0  0
 26 27  1  0  0  0  0
 26 37  2  0  0  0  0
 27 28  2  0  0  0  0
 27 87  1  0  0  0  0
 28 29  1  0  0  0  0
 28 88  1  0  0  0  0
 29 30  2  0  0  0  0
 30 31  1  0  0  0  0
 30 37  1  0  0  0  0
 31 32  2  0  0  0  0
 31 89  1  0  0  0  0
 32 33  1  0  0  0  0
 32 90  1  0  0  0  0
 33 34  1  0  0  0  0
 33 36  2  0  0  0  0
 34 35  1  0  0  0  0
 35 91  1  0  0  0  0
 35 92  1  0  0  0  0
 35 93  1  0  0  0  0
 36 37  1  0  0  0  0
 36 94  1  0  0  0  0
 38 39  1  0  0  0  0
 38 43  1  0  0  0  0
 38 95  1  6  0  0  0
 39 40  1  0  0  0  0
 39 96  1  0  0  0  0
 39 97  1  0  0  0  0
 40 41  1  0  0  0  0
 40 45  1  0  0  0  0
 40 98  1  1  0  0  0
 41 42  1  0  0  0  0
 41 99  1  0  0  0  0
 41100  1  0  0  0  0
 42 43  1  0  0  0  0
 42101  1  0  0  0  0
 42102  1  0  0  0  0
 43 44  1  0  0  0  0
 44 45  1  0  0  0  0
 44103  1  0  0  0  0
 44104  1  0  0  0  0
 45 46  1  0  0  0  0
 45105  1  1  0  0  0
 46 47  2  0  0  0  0
 46106  1  0  0  0  0
 47107  1  0  0  0  0
 47108  1  0  0  0  0
 48 49  2  0  0  0  0
 50 51  1  0  0  0  0
 50 61  2  0  0  0  0
 51 52  2  0  0  0  0
 51109  1  0  0  0  0
 52 53  1  0  0  0  0
 52110  1  0  0  0  0
 53 54  2  0  0  0  0
 54 55  1  0  0  0  0
 54 61  1  0  0  0  0
 55 56  2  0  0  0  0
 55111  1  0  0  0  0
 56 57  1  0  0  0  0
 56112  1  0  0  0  0
 57 58  1  0  0  0  0
 57 60  2  0  0  0  0
 58 59  1  0  0  0  0
 59113  1  0  0  0  0
 59114  1  0  0  0  0
 59115  1  0  0  0  0
 60 61  1  0  0  0  0
 60116  1  0  0  0  0
M  END
>  <Energy>
179.319

$$$$