90655520
  -OEChem-03242010103D

 49 51  0     0  0  0  0  0  0999 V2000
    3.7244    2.5567   -0.4710 O   0  0  0  0  0  0  0  0  0  0  0  0
    8.0192   -0.5786    0.1822 O   0  0  0  0  0  0  0  0  0  0  0  0
   -6.2210    1.7995    0.3707 O   0  0  0  0  0  0  0  0  0  0  0  0
   -4.3336   -2.5223   -0.4628 O   0  0  0  0  0  0  0  0  0  0  0  0
   -6.5428   -0.9326    0.0484 O   0  0  0  0  0  0  0  0  0  0  0  0
    2.3955   -0.7630    0.1189 C   0  0  0  0  0  0  0  0  0  0  0  0
    3.8890   -0.8817    0.1660 C   0  0  0  0  0  0  0  0  0  0  0  0
    4.5216    0.3448   -0.0493 C   0  0  0  0  0  0  0  0  0  0  0  0
    2.1823    0.7040   -0.1543 C   0  0  0  0  0  0  0  0  0  0  0  0
    3.5084    1.3817   -0.2577 C   0  0  0  0  0  0  0  0  0  0  0  0
    4.6444   -2.0205    0.3885 C   0  0  0  0  0  0  0  0  0  0  0  0
    5.8968    0.4857   -0.0518 C   0  0  0  0  0  0  0  0  0  0  0  0
    1.0249    1.3533   -0.2893 C   0  0  0  0  0  0  0  0  0  0  0  0
    6.6589   -0.6615    0.1723 C   0  0  0  0  0  0  0  0  0  0  0  0
    6.0384   -1.9042    0.3906 C   0  0  0  0  0  0  0  0  0  0  0  0
   -0.2683    0.7097   -0.1916 C   0  0  0  0  0  0  0  0  0  0  0  0
   -2.7657    0.7714   -0.2316 C   0  0  0  0  0  0  0  0  0  0  0  0
   -1.4257    1.3756   -0.3296 C   0  0  0  0  0  0  0  0  0  0  0  0
   -2.9240   -0.6050   -0.3948 C   0  0  0  0  0  0  0  0  0  0  0  0
   -3.8761    1.5754    0.0255 C   0  0  0  0  0  0  0  0  0  0  0  0
   -5.1448    1.0032    0.1193 C   0  0  0  0  0  0  0  0  0  0  0  0
   -4.1926   -1.1771   -0.3009 C   0  0  0  0  0  0  0  0  0  0  0  0
   -5.3030   -0.3730   -0.0438 C   0  0  0  0  0  0  0  0  0  0  0  0
    8.5910    0.7080   -0.0451 C   0  0  0  0  0  0  0  0  0  0  0  0
   -6.5649    2.0110    1.7388 C   0  0  0  0  0  0  0  0  0  0  0  0
   -4.2331   -3.3299    0.7086 C   0  0  0  0  0  0  0  0  0  0  0  0
   -7.2993   -1.0308   -1.1562 C   0  0  0  0  0  0  0  0  0  0  0  0
    1.9944   -1.3804   -0.6910 H   0  0  0  0  0  0  0  0  0  0  0  0
    1.9647   -1.0549    1.0819 H   0  0  0  0  0  0  0  0  0  0  0  0
    4.1726   -2.9825    0.5578 H   0  0  0  0  0  0  0  0  0  0  0  0
    6.3081    1.4719   -0.2262 H   0  0  0  0  0  0  0  0  0  0  0  0
    1.0282    2.4229   -0.4857 H   0  0  0  0  0  0  0  0  0  0  0  0
    6.6460   -2.7891    0.5643 H   0  0  0  0  0  0  0  0  0  0  0  0
   -0.2603   -0.3536    0.0246 H   0  0  0  0  0  0  0  0  0  0  0  0
   -1.4099    2.4473   -0.5186 H   0  0  0  0  0  0  0  0  0  0  0  0
   -2.0877   -1.2615   -0.6182 H   0  0  0  0  0  0  0  0  0  0  0  0
   -3.7638    2.6497    0.1550 H   0  0  0  0  0  0  0  0  0  0  0  0
    8.3165    1.4159    0.7444 H   0  0  0  0  0  0  0  0  0  0  0  0
    8.3483    1.0859   -1.0441 H   0  0  0  0  0  0  0  0  0  0  0  0
    9.6788    0.5902   -0.0040 H   0  0  0  0  0  0  0  0  0  0  0  0
   -7.4459    2.6577    1.7745 H   0  0  0  0  0  0  0  0  0  0  0  0
   -5.7448    2.5068    2.2679 H   0  0  0  0  0  0  0  0  0  0  0  0
   -6.8076    1.0617    2.2266 H   0  0  0  0  0  0  0  0  0  0  0  0
   -4.3750   -4.3743    0.4177 H   0  0  0  0  0  0  0  0  0  0  0  0
   -5.0093   -3.0592    1.4313 H   0  0  0  0  0  0  0  0  0  0  0  0
   -3.2428   -3.2243    1.1630 H   0  0  0  0  0  0  0  0  0  0  0  0
   -8.2601   -1.4962   -0.9200 H   0  0  0  0  0  0  0  0  0  0  0  0
   -6.7787   -1.6560   -1.8884 H   0  0  0  0  0  0  0  0  0  0  0  0
   -7.4860   -0.0374   -1.5761 H   0  0  0  0  0  0  0  0  0  0  0  0
  1 10  2  0  0  0  0
  2 14  1  0  0  0  0
  2 24  1  0  0  0  0
  3 21  1  0  0  0  0
  3 25  1  0  0  0  0
  4 22  1  0  0  0  0
  4 26  1  0  0  0  0
  5 23  1  0  0  0  0
  5 27  1  0  0  0  0
  6  7  1  0  0  0  0
  6  9  1  0  0  0  0
  6 28  1  0  0  0  0
  6 29  1  0  0  0  0
  7  8  2  0  0  0  0
  7 11  1  0  0  0  0
  8 10  1  0  0  0  0
  8 12  1  0  0  0  0
  9 10  1  0  0  0  0
  9 13  2  0  0  0  0
 11 15  2  0  0  0  0
 11 30  1  0  0  0  0
 12 14  2  0  0  0  0
 12 31  1  0  0  0  0
 13 16  1  0  0  0  0
 13 32  1  0  0  0  0
 14 15  1  0  0  0  0
 15 33  1  0  0  0  0
 16 18  2  0  0  0  0
 16 34  1  0  0  0  0
 17 18  1  0  0  0  0
 17 19  2  0  0  0  0
 17 20  1  0  0  0  0
 18 35  1  0  0  0  0
 19 22  1  0  0  0  0
 19 36  1  0  0  0  0
 20 21  2  0  0  0  0
 20 37  1  0  0  0  0
 21 23  1  0  0  0  0
 22 23  2  0  0  0  0
 24 38  1  0  0  0  0
 24 39  1  0  0  0  0
 24 40  1  0  0  0  0
 25 41  1  0  0  0  0
 25 42  1  0  0  0  0
 25 43  1  0  0  0  0
 26 44  1  0  0  0  0
 26 45  1  0  0  0  0
 26 46  1  0  0  0  0
 27 47  1  0  0  0  0
 27 48  1  0  0  0  0
 27 49  1  0  0  0  0
M  END
> <PUBCHEM_COMPOUND_CID>
90655520

> <PUBCHEM_CONFORMER_RMSD>
0.8

> <PUBCHEM_CONFORMER_DIVERSEORDER>
1
5
6
2
4
8
7
3

> <PUBCHEM_MMFF94_PARTIAL_CHARGES>
35
1 -0.57
10 0.47
11 -0.15
12 -0.15
13 -0.15
14 0.08
15 -0.15
16 -0.15
17 0.03
18 -0.18
19 -0.15
2 -0.36
20 -0.15
21 0.08
22 0.08
23 0.08
24 0.28
25 0.28
26 0.28
27 0.28
3 -0.36
30 0.15
31 0.15
32 0.15
33 0.15
34 0.15
35 0.15
36 0.15
37 0.15
4 -0.36
5 -0.36
6 0.28
7 -0.14
8 0.09
9 -0.12

> <PUBCHEM_EFFECTIVE_ROTOR_COUNT>
6.2

> <PUBCHEM_PHARMACOPHORE_FEATURES>
8
1 1 acceptor
1 2 acceptor
1 3 acceptor
1 4 acceptor
1 5 acceptor
5 6 7 8 9 10 rings
6 17 19 20 21 22 23 rings
6 7 8 11 12 14 15 rings

> <PUBCHEM_HEAVY_ATOM_COUNT>
27

> <PUBCHEM_ATOM_DEF_STEREO_COUNT>
0

> <PUBCHEM_ATOM_UDEF_STEREO_COUNT>
0

> <PUBCHEM_BOND_DEF_STEREO_COUNT>
2

> <PUBCHEM_BOND_UDEF_STEREO_COUNT>
0

> <PUBCHEM_ISOTOPIC_ATOM_COUNT>
0

> <PUBCHEM_COMPONENT_COUNT>
1

> <PUBCHEM_CACTVS_TAUTO_COUNT>
1

> <PUBCHEM_CONFORMER_ID>
05674B2000000001

> <PUBCHEM_MMFF94_ENERGY>
114.8764

> <PUBCHEM_FEATURE_SELFOVERLAP>
40.691

> <PUBCHEM_SHAPE_FINGERPRINT>
10299344 5 18410576180201622772
10391435 84 18261664986877611362
10595046 47 18338518672036946477
11315181 36 18272368668634778201
11524674 6 17275100635399190279
11991303 11 13912618168193984576
12107183 9 18339367353659730353
12236239 1 18342458131725366640
12516196 113 18343016684107024152
13885169 127 18342175540315725805
14251764 18 18412544310273340444
14394314 77 18338801113634779321
14849402 71 18338238267146084376
15021287 119 17676497129333216493
15183329 4 18260261949594515875
15301273 46 17132120104932178620
15352257 5 18408884036133344606
15361156 5 17822019747472455453
15461852 350 16486962999880872709
15537594 2 17676203546405465251
15728490 51 18410853279271284206
15799311 1 18335435568122689382
17780758 139 18343022177544184649
17857418 61 18409728460762510478
20028762 73 18412258428951191894
21033648 29 15338850737669565753
21130935 74 18272087171524069026
21267235 1 18410014334281662956
23081809 10 18412830200709079269
23516275 137 18196673816675534746
23522609 53 18191616131617039268
23559900 14 18194675089709713865
23569943 247 17678167200994978979
3004659 81 18187078473003596624
3383291 50 18335986454500167467
4073 2 18114466776803081146
4325135 7 18333167276272676854
5104073 3 18342176699903992921
559249 180 18412261719216958605
58260988 114 17168724050033684923
6691757 9 18060424604315465475
7226269 152 17845937325929442881
999808 66 17822304496084762139

> <PUBCHEM_SHAPE_MULTIPOLES>
526.3
24.75
2.61
0.85
12.81
1.2
-0.16
2.99
-1.85
-2.58
-0.41
-1.22
-0.11
-1.78

> <PUBCHEM_SHAPE_SELFOVERLAP>
1134.521

> <PUBCHEM_SHAPE_VOLUME>
293.9

> <PUBCHEM_COORDINATE_TYPE>
2
5
10

$$$$