90655515
  -OEChem-03242010103D

 41 42  0     0  0  0  0  0  0999 V2000
   -4.0948   -1.5849   -0.1825 O   0  0  0  0  0  0  0  0  0  0  0  0
   -1.6454   -1.5476   -1.2163 O   0  0  0  0  0  0  0  0  0  0  0  0
    2.3922   -0.2558   -0.3367 C   0  0  0  0  0  0  0  0  0  0  0  0
    3.1073   -1.2007    0.3991 C   0  0  0  0  0  0  0  0  0  0  0  0
    2.9945    0.9498   -0.6957 C   0  0  0  0  0  0  0  0  0  0  0  0
    5.0271    0.2659    0.4168 C   0  0  0  0  0  0  0  0  0  0  0  0
    4.4246   -0.9399    0.7759 C   0  0  0  0  0  0  0  0  0  0  0  0
    4.3120    1.2109   -0.3189 C   0  0  0  0  0  0  0  0  0  0  0  0
    1.0004   -0.5315   -0.7347 C   0  0  0  0  0  0  0  0  0  0  0  0
    2.4973   -2.5049    0.8033 C   0  0  0  0  0  0  0  0  0  0  0  0
    2.2618    1.9882   -1.4840 C   0  0  0  0  0  0  0  0  0  0  0  0
    6.4357    0.5448    0.8197 C   0  0  0  0  0  0  0  0  0  0  0  0
   -0.0762   -0.2316    0.0069 C   0  0  0  0  0  0  0  0  0  0  0  0
   -2.5704    0.2622   -0.0440 C   0  0  0  0  0  0  0  0  0  0  0  0
   -1.4566   -0.5683   -0.4804 C   0  0  0  0  0  0  0  0  0  0  0  0
   -3.8517   -0.2720    0.0913 C   0  0  0  0  0  0  0  0  0  0  0  0
   -2.3427    1.6089    0.2387 C   0  0  0  0  0  0  0  0  0  0  0  0
   -4.9055    0.5407    0.5092 C   0  0  0  0  0  0  0  0  0  0  0  0
   -3.3966    2.4217    0.6566 C   0  0  0  0  0  0  0  0  0  0  0  0
   -4.6781    1.8876    0.7919 C   0  0  0  0  0  0  0  0  0  0  0  0
   -5.4349   -2.0433   -0.0163 C   0  0  0  0  0  0  0  0  0  0  0  0
    4.9863   -1.6715    1.3520 H   0  0  0  0  0  0  0  0  0  0  0  0
    4.7860    2.1503   -0.5936 H   0  0  0  0  0  0  0  0  0  0  0  0
    0.8945   -1.0261   -1.6971 H   0  0  0  0  0  0  0  0  0  0  0  0
    1.6794   -2.3429    1.5129 H   0  0  0  0  0  0  0  0  0  0  0  0
    2.1205   -3.0457   -0.0713 H   0  0  0  0  0  0  0  0  0  0  0  0
    3.2264   -3.1610    1.2918 H   0  0  0  0  0  0  0  0  0  0  0  0
    1.8881    1.5697   -2.4245 H   0  0  0  0  0  0  0  0  0  0  0  0
    1.4238    2.3898   -0.9048 H   0  0  0  0  0  0  0  0  0  0  0  0
    2.9093    2.8321   -1.7468 H   0  0  0  0  0  0  0  0  0  0  0  0
    7.0191   -0.3800    0.8838 H   0  0  0  0  0  0  0  0  0  0  0  0
    6.9363    1.1883    0.0882 H   0  0  0  0  0  0  0  0  0  0  0  0
    6.4561    1.0408    1.7951 H   0  0  0  0  0  0  0  0  0  0  0  0
    0.0214    0.2791    0.9595 H   0  0  0  0  0  0  0  0  0  0  0  0
   -1.3639    2.0662    0.1235 H   0  0  0  0  0  0  0  0  0  0  0  0
   -5.9264    0.1976    0.6365 H   0  0  0  0  0  0  0  0  0  0  0  0
   -3.2209    3.4717    0.8718 H   0  0  0  0  0  0  0  0  0  0  0  0
   -5.4981    2.5218    1.1162 H   0  0  0  0  0  0  0  0  0  0  0  0
   -6.1221   -1.5424   -0.7067 H   0  0  0  0  0  0  0  0  0  0  0  0
   -5.7614   -1.9688    1.0266 H   0  0  0  0  0  0  0  0  0  0  0  0
   -5.4452   -3.1071   -0.2758 H   0  0  0  0  0  0  0  0  0  0  0  0
  1 16  1  0  0  0  0
  1 21  1  0  0  0  0
  2 15  2  0  0  0  0
  3  4  2  0  0  0  0
  3  5  1  0  0  0  0
  3  9  1  0  0  0  0
  4  7  1  0  0  0  0
  4 10  1  0  0  0  0
  5  8  2  0  0  0  0
  5 11  1  0  0  0  0
  6  7  2  0  0  0  0
  6  8  1  0  0  0  0
  6 12  1  0  0  0  0
  7 22  1  0  0  0  0
  8 23  1  0  0  0  0
  9 13  2  0  0  0  0
  9 24  1  0  0  0  0
 10 25  1  0  0  0  0
 10 26  1  0  0  0  0
 10 27  1  0  0  0  0
 11 28  1  0  0  0  0
 11 29  1  0  0  0  0
 11 30  1  0  0  0  0
 12 31  1  0  0  0  0
 12 32  1  0  0  0  0
 12 33  1  0  0  0  0
 13 15  1  0  0  0  0
 13 34  1  0  0  0  0
 14 15  1  0  0  0  0
 14 16  1  0  0  0  0
 14 17  2  0  0  0  0
 16 18  2  0  0  0  0
 17 19  1  0  0  0  0
 17 35  1  0  0  0  0
 18 20  1  0  0  0  0
 18 36  1  0  0  0  0
 19 20  2  0  0  0  0
 19 37  1  0  0  0  0
 20 38  1  0  0  0  0
 21 39  1  0  0  0  0
 21 40  1  0  0  0  0
 21 41  1  0  0  0  0
M  END
> <PUBCHEM_COMPOUND_CID>
90655515

> <PUBCHEM_CONFORMER_RMSD>
0.6

> <PUBCHEM_CONFORMER_DIVERSEORDER>
5
38
33
7
34
52
4
18
32
50
25
31
11
36
3
28
29
26
15
40
24
8
12
46
2
20
13
39
19
47
9
51
17
43
14
6
42
30
1
49
35
10
37
16
22
45
44
48
27
23
21
41

> <PUBCHEM_MMFF94_PARTIAL_CHARGES>
29
1 -0.36
10 0.14
11 0.14
12 0.14
13 -0.14
14 0.09
15 0.47
16 0.08
17 -0.15
18 -0.15
19 -0.15
2 -0.57
20 -0.15
21 0.28
22 0.15
23 0.15
24 0.15
3 0.03
34 0.15
35 0.15
36 0.15
37 0.15
38 0.15
4 -0.14
5 -0.14
6 -0.14
7 -0.15
8 -0.15
9 -0.18

> <PUBCHEM_EFFECTIVE_ROTOR_COUNT>
4

> <PUBCHEM_PHARMACOPHORE_FEATURES>
4
1 1 acceptor
1 2 acceptor
6 14 16 17 18 19 20 rings
6 3 4 5 6 7 8 rings

> <PUBCHEM_HEAVY_ATOM_COUNT>
21

> <PUBCHEM_ATOM_DEF_STEREO_COUNT>
0

> <PUBCHEM_ATOM_UDEF_STEREO_COUNT>
0

> <PUBCHEM_BOND_DEF_STEREO_COUNT>
1

> <PUBCHEM_BOND_UDEF_STEREO_COUNT>
0

> <PUBCHEM_ISOTOPIC_ATOM_COUNT>
0

> <PUBCHEM_COMPONENT_COUNT>
1

> <PUBCHEM_CACTVS_TAUTO_COUNT>
9

> <PUBCHEM_CONFORMER_ID>
05674B1B00000005

> <PUBCHEM_MMFF94_ENERGY>
78.6687

> <PUBCHEM_FEATURE_SELFOVERLAP>
20.306

> <PUBCHEM_SHAPE_FINGERPRINT>
10354089 29 18334017172954278824
10366900 7 17458355142993777900
10595046 47 18409730681318559875
12107183 9 17760927342485768355
12236239 1 18411981365005192026
12403259 118 18410857667989687629
12507557 5 18260828185440745573
12596602 18 18342455941745304626
12616971 3 17967543376037739845
12633257 1 17313107466689490080
12670546 56 18410290302762049495
13167823 11 18410292497453797675
13914758 101 17313373505912552141
14251764 18 18186799215058185768
14341114 176 18337678511750571227
14341114 328 18409733941124949569
14849402 71 18263083387549530700
15188451 53 16516261737802296273
15475509 8 18337406963688364132
17492 89 18339365171473738223
17857418 61 18260544537215428963
1813 80 16878234052157154118
19050596 39 18335425664165254229
19377110 9 18410022052306219731
20511986 3 18338220592600579377
20645477 56 17203606003682340823
20715895 44 17979636732675758265
20739085 24 18114748114783878270
21033648 29 17203033123943905618
21065198 48 18409445860525733634
21267235 1 18409453596315630758
21859007 373 17390224824508445749
23402539 116 18410007754270283869
23557571 272 17846504750420718732
23559900 14 17843134605701081247
2838139 119 16915358105114406840
300161 21 18409726227711786857
3633792 109 18041263410593628479
38570 142 17825134694817928500
4214541 1 18410856538423558865
474 4 18113623421288182964
5104073 3 18411420570455681395
542803 24 18131631171114223290
67856867 119 18335421326095889253
7097593 13 18191021201394530131
9849439 229 17269496244423774529

> <PUBCHEM_SHAPE_MULTIPOLES>
420.43
13.9
2.37
1.02
1.55
0.1
0.13
-0.81
-3.71
-1.63
-0.13
0.41
-0.17
-1.67

> <PUBCHEM_SHAPE_SELFOVERLAP>
896.669

> <PUBCHEM_SHAPE_VOLUME>
235.8

> <PUBCHEM_COORDINATE_TYPE>
2
5
10

$$$$