133
 OpenBabel03292022003D

101108  0  0  1  0  0  0  0  0999 V2000
  -16.3728   14.2082  -11.9143 N   0  0  0  0  0  0  0  0  0  0  0  0
  -15.9539   14.6066  -13.1737 C   0  0  0  0  0  0  0  0  0  0  0  0
  -15.6789   15.9550  -13.2650 N   0  0  0  0  0  0  0  0  0  0  0  0
  -16.0375   16.7615  -14.3252 C   0  0  0  0  0  0  0  0  0  0  0  0
  -15.6237   18.1197  -14.3558 N   0  0  0  0  0  0  0  0  0  0  0  0
  -15.2609   18.9428  -13.1938 C   0  0  0  0  0  0  0  0  0  0  0  0
  -14.6580   20.3153  -13.4185 C   0  0  0  0  0  0  0  0  0  0  0  0
  -16.0503   20.2091  -12.9063 C   0  0  0  0  0  0  0  0  0  0  0  0
  -16.9608   16.1169  -15.2310 C   0  0  0  0  0  0  0  0  0  0  0  0
  -18.4937   16.3979  -16.6414 N   0  0  0  0  0  0  0  0  0  0  0  0
  -19.1736   14.9204  -17.0896 C   0  0  0  0  0  0  0  0  0  0  0  0
  -18.3101   13.6484  -16.1355 N   0  0  0  0  0  0  0  0  0  0  0  0
  -18.5870   12.2775  -16.5153 C   0  0  1  0  0  0  0  0  0  0  0  0
  -17.5091   11.2614  -16.4024 C   0  0  0  0  0  0  0  0  0  0  0  0
  -18.0350   10.0644  -16.1187 C   0  0  0  0  0  0  0  0  0  0  0  0
  -19.5143   10.1377  -15.8375 C   0  0  1  0  0  0  0  0  0  0  0  0
  -19.9267    9.4070  -14.5518 C   0  0  0  0  0  0  0  0  0  0  0  0
  -19.3527   10.0537  -13.4029 O   0  0  0  0  0  0  0  0  0  0  0  0
  -18.0933    9.6649  -13.0642 C   0  0  0  0  0  0  0  0  0  0  0  0
  -17.5369    8.6450  -13.4475 O   0  0  0  0  0  0  0  0  0  0  0  0
  -17.4494   10.7123  -12.1917 C   0  0  0  0  0  0  0  0  0  0  0  0
  -17.1104   10.1394  -10.8255 C   0  0  0  0  0  0  0  0  0  0  0  0
  -16.3252   11.1105   -9.9345 C   0  0  0  0  0  0  0  0  0  0  0  0
  -17.1828   12.2359   -9.3519 C   0  0  0  0  0  0  0  0  0  0  0  0
  -16.4998   13.0198   -8.2261 C   0  0  0  0  0  0  0  0  0  0  0  0
  -15.1503   13.7133   -8.4798 C   0  0  0  0  0  0  0  0  0  0  0  0
  -15.0571   14.9839   -9.3370 C   0  0  0  0  0  0  0  0  0  0  0  0
  -16.1975   15.9767   -9.2020 C   0  0  0  0  0  0  0  0  0  0  0  0
  -16.9851   16.0076   -8.2663 O   0  0  0  0  0  0  0  0  0  0  0  0
  -16.1684   16.9190  -10.1930 O   0  0  0  0  0  0  0  0  0  0  0  0
  -16.8117   18.1652   -9.8623 C   0  0  0  0  0  0  0  0  0  0  0  0
  -18.2367   18.3809  -10.4174 C   0  0  2  0  0  0  0  0  0  0  0  0
  -19.2660   17.3796  -10.0203 C   0  0  0  0  0  0  0  0  0  0  0  0
  -20.0688   17.0498  -11.0392 C   0  0  0  0  0  0  0  0  0  0  0  0
  -19.6888   17.6935  -12.3585 C   0  0  2  0  0  0  0  0  0  0  0  0
  -19.5446   16.7632  -13.4910 N   0  0  0  0  0  0  0  0  0  0  0  0
  -19.8664   15.4195  -13.4140 C   0  0  0  0  0  0  0  0  0  0  0  0
  -19.3947   14.6434  -14.3595 N   0  0  0  0  0  0  0  0  0  0  0  0
  -18.6468   15.4767  -15.2657 C   0  0  0  0  0  0  0  0  0  0  0  0
  -17.2386   15.2939  -16.8130 C   0  0  0  0  0  0  0  0  0  0  0  0
  -16.4144   14.1792  -17.3790 N   0  0  0  0  0  0  0  0  0  0  0  0
  -15.5594   14.1941  -18.5509 C   0  0  0  0  0  0  0  0  0  0  0  0
  -14.1478   14.6822  -18.6342 C   0  0  0  0  0  0  0  0  0  0  0  0
  -14.3844   13.2198  -18.4437 C   0  0  0  0  0  0  0  0  0  0  0  0
  -16.7367   16.8600  -17.2820 N   0  0  0  0  0  0  0  0  0  0  0  0
  -17.4355   18.0949  -16.5966 C   0  0  0  0  0  0  0  0  0  0  0  0
  -17.1363   19.3002  -17.2389 N   0  0  0  0  0  0  0  0  0  0  0  0
  -18.4088   18.2636  -15.3520 N   0  0  0  0  0  0  0  0  0  0  0  0
  -18.9645   17.0197  -14.7344 C   0  0  0  0  0  0  0  0  0  0  0  0
  -18.3775   18.3903  -11.9505 C   0  0  0  0  0  0  0  0  0  0  0  0
  -19.7532   11.6570  -15.7529 C   0  0  0  0  0  0  0  0  0  0  0  0
  -17.0320   14.3166  -15.0160 C   0  0  0  0  0  0  0  0  0  0  0  0
  -16.3636   13.6812  -14.0728 N   0  0  0  0  0  0  0  0  0  0  0  0
  -16.8739   15.0082  -11.5415 H   0  0  0  0  0  0  0  0  0  0  0  0
  -16.9778   13.4171  -12.0978 H   0  0  0  0  0  0  0  0  0  0  0  0
  -16.0791   18.6519  -15.0838 H   0  0  0  0  0  0  0  0  0  0  0  0
  -14.8630   18.3789  -12.3557 H   0  0  0  0  0  0  0  0  0  0  0  0
  -14.5415   20.6826  -14.4313 H   0  0  0  0  0  0  0  0  0  0  0  0
  -13.9158   20.6863  -12.7221 H   0  0  0  0  0  0  0  0  0  0  0  0
  -16.8553   20.4834  -13.5815 H   0  0  0  0  0  0  0  0  0  0  0  0
  -16.2244   20.5138  -11.8816 H   0  0  0  0  0  0  0  0  0  0  0  0
  -19.9207   14.6248  -17.8137 H   0  0  0  0  0  0  0  0  0  0  0  0
  -18.8461   12.3405  -17.5794 H   0  0  0  0  0  0  0  0  0  0  0  0
  -16.4703   11.4202  -16.6524 H   0  0  0  0  0  0  0  0  0  0  0  0
  -17.4712    9.1394  -16.0885 H   0  0  0  0  0  0  0  0  0  0  0  0
  -20.0579    9.7143  -16.6913 H   0  0  0  0  0  0  0  0  0  0  0  0
  -21.0145    9.4694  -14.4352 H   0  0  0  0  0  0  0  0  0  0  0  0
  -19.6676    8.3425  -14.5882 H   0  0  0  0  0  0  0  0  0  0  0  0
  -18.1240   11.5699  -12.0984 H   0  0  0  0  0  0  0  0  0  0  0  0
  -16.5514   11.0627  -12.7135 H   0  0  0  0  0  0  0  0  0  0  0  0
  -16.5071    9.2331  -10.9624 H   0  0  0  0  0  0  0  0  0  0  0  0
  -18.0313    9.8179  -10.3231 H   0  0  0  0  0  0  0  0  0  0  0  0
  -15.4804   11.5267  -10.4942 H   0  0  0  0  0  0  0  0  0  0  0  0
  -15.9051   10.5277   -9.1059 H   0  0  0  0  0  0  0  0  0  0  0  0
  -18.0906   11.7880   -8.9242 H   0  0  0  0  0  0  0  0  0  0  0  0
  -17.5385   12.9145  -10.1268 H   0  0  0  0  0  0  0  0  0  0  0  0
  -16.3298   12.3080   -7.4071 H   0  0  0  0  0  0  0  0  0  0  0  0
  -17.2248   13.7322   -7.8238 H   0  0  0  0  0  0  0  0  0  0  0  0
  -14.4322   12.9808   -8.8696 H   0  0  0  0  0  0  0  0  0  0  0  0
  -14.7648   13.9927   -7.4904 H   0  0  0  0  0  0  0  0  0  0  0  0
  -14.8758   14.7099  -10.3719 H   0  0  0  0  0  0  0  0  0  0  0  0
  -14.1459   15.5225   -9.0439 H   0  0  0  0  0  0  0  0  0  0  0  0
  -16.1561   18.9539  -10.2469 H   0  0  0  0  0  0  0  0  0  0  0  0
  -16.8080   18.3153   -8.7743 H   0  0  0  0  0  0  0  0  0  0  0  0
  -18.5653   19.3571  -10.0335 H   0  0  0  0  0  0  0  0  0  0  0  0
  -19.3876   17.0383   -8.9983 H   0  0  0  0  0  0  0  0  0  0  0  0
  -20.9313   16.4105  -10.9059 H   0  0  0  0  0  0  0  0  0  0  0  0
  -20.4583   18.4158  -12.6519 H   0  0  0  0  0  0  0  0  0  0  0  0
  -20.4122   15.0191  -12.5699 H   0  0  0  0  0  0  0  0  0  0  0  0
  -15.9374   13.7029  -16.6128 H   0  0  0  0  0  0  0  0  0  0  0  0
  -16.1297   14.1521  -19.4733 H   0  0  0  0  0  0  0  0  0  0  0  0
  -13.7573   15.2606  -17.8072 H   0  0  0  0  0  0  0  0  0  0  0  0
  -13.7681   14.9798  -19.6052 H   0  0  0  0  0  0  0  0  0  0  0  0
  -14.1023   12.8118  -17.4751 H   0  0  0  0  0  0  0  0  0  0  0  0
  -14.2165   12.5291  -19.2601 H   0  0  0  0  0  0  0  0  0  0  0  0
  -16.8549   19.0210  -18.1761 H   0  0  0  0  0  0  0  0  0  0  0  0
  -17.9924   19.8436  -17.2160 H   0  0  0  0  0  0  0  0  0  0  0  0
  -18.4200   19.4261  -12.3017 H   0  0  0  0  0  0  0  0  0  0  0  0
  -17.5191   17.9013  -12.3996 H   0  0  0  0  0  0  0  0  0  0  0  0
  -19.7772   12.0168  -14.7178 H   0  0  0  0  0  0  0  0  0  0  0  0
  -20.7152   11.9359  -16.1996 H   0  0  0  0  0  0  0  0  0  0  0  0
  1  2  1  0  0  0  0
  1 54  1  0  0  0  0
  1 55  1  0  0  0  0
  2  3  1  0  0  0  0
  2 53  2  0  0  0  0
  3  4  2  0  0  0  0
  4  5  1  0  0  0  0
  4  9  1  0  0  0  0
  5  6  1  0  0  0  0
  5 56  1  0  0  0  0
  6  7  1  0  0  0  0
  6  8  1  0  0  0  0
  6 57  1  0  0  0  0
  7  8  1  0  0  0  0
  7 58  1  0  0  0  0
  7 59  1  0  0  0  0
  8 60  1  0  0  0  0
  8 61  1  0  0  0  0
  9 10  1  0  0  0  0
  9 52  2  0  0  0  0
 10 11  2  0  0  0  0
 11 12  1  0  0  0  0
 11 62  1  0  0  0  0
 12 13  1  0  0  0  0
 12 52  1  0  0  0  0
 13 14  1  0  0  0  0
 13 51  1  0  0  0  0
 13 63  1  6  0  0  0
 14 15  2  0  0  0  0
 14 64  1  0  0  0  0
 15 16  1  0  0  0  0
 15 65  1  0  0  0  0
 16 51  1  0  0  0  0
 16 17  1  0  0  0  0
 16 66  1  6  0  0  0
 17 18  1  0  0  0  0
 17 67  1  0  0  0  0
 17 68  1  0  0  0  0
 18 19  1  0  0  0  0
 19 20  2  0  0  0  0
 19 21  1  0  0  0  0
 21 22  1  0  0  0  0
 21 69  1  0  0  0  0
 21 70  1  0  0  0  0
 22 23  1  0  0  0  0
 22 71  1  0  0  0  0
 22 72  1  0  0  0  0
 23 24  1  0  0  0  0
 23 73  1  0  0  0  0
 23 74  1  0  0  0  0
 24 25  1  0  0  0  0
 24 75  1  0  0  0  0
 24 76  1  0  0  0  0
 25 26  1  0  0  0  0
 25 77  1  0  0  0  0
 25 78  1  0  0  0  0
 26 27  1  0  0  0  0
 26 79  1  0  0  0  0
 26 80  1  0  0  0  0
 27 28  1  0  0  0  0
 27 81  1  0  0  0  0
 27 82  1  0  0  0  0
 28 29  2  0  0  0  0
 28 30  1  0  0  0  0
 30 31  1  0  0  0  0
 31 83  1  0  0  0  0
 31 84  1  0  0  0  0
 32 33  1  0  0  0  0
 32 50  1  0  0  0  0
 32 31  1  0  0  0  0
 32 85  1  1  0  0  0
 33 34  2  0  0  0  0
 33 86  1  0  0  0  0
 34 35  1  0  0  0  0
 34 87  1  0  0  0  0
 35 36  1  0  0  0  0
 35 50  1  0  0  0  0
 35 88  1  6  0  0  0
 36 37  1  0  0  0  0
 36 49  1  0  0  0  0
 37 38  2  0  0  0  0
 37 89  1  0  0  0  0
 38 39  1  0  0  0  0
 39 40  1  0  0  0  0
 39 49  2  0  0  0  0
 40 41  1  0  0  0  0
 40 45  2  0  0  0  0
 41 42  1  0  0  0  0
 41 90  1  0  0  0  0
 42 43  1  0  0  0  0
 42 44  1  0  0  0  0
 42 91  1  0  0  0  0
 43 44  1  0  0  0  0
 43 92  1  0  0  0  0
 43 93  1  0  0  0  0
 44 94  1  0  0  0  0
 44 95  1  0  0  0  0
 45 46  1  0  0  0  0
 46 47  1  0  0  0  0
 46 48  2  0  0  0  0
 47 96  1  0  0  0  0
 47 97  1  0  0  0  0
 48 49  1  0  0  0  0
 50 98  1  0  0  0  0
 50 99  1  0  0  0  0
 51100  1  0  0  0  0
 51101  1  0  0  0  0
 52 53  1  0  0  0  0
M  END
>  <Energy>
1502.04

$$$$