70677689
  -OEChem-03242010103D

 40 42  0     0  0  0  0  0  0999 V2000
   -6.4405    1.6219    1.0919 Cl  0  0  0  0  0  0  0  0  0  0  0  0
   -1.1811   -1.1657   -1.8495 O   0  0  0  0  0  0  0  0  0  0  0  0
    4.5589    3.6871   -0.2609 O   0  0  0  0  0  0  0  0  0  0  0  0
    4.0885    1.7601   -1.3653 O   0  0  0  0  0  0  0  0  0  0  0  0
    0.0870   -0.0400   -0.3501 N   0  0  0  0  0  0  0  0  0  0  0  0
    1.0547   -0.9007    0.1799 C   0  0  0  0  0  0  0  0  0  0  0  0
    2.1475   -0.1176    0.5771 C   0  0  0  0  0  0  0  0  0  0  0  0
    1.8344    1.2287    0.2770 C   0  0  0  0  0  0  0  0  0  0  0  0
    1.0680   -2.2970    0.3616 C   0  0  0  0  0  0  0  0  0  0  0  0
    0.5845    1.2481   -0.2888 C   0  0  0  0  0  0  0  0  0  0  0  0
   -0.0255   -3.2482   -0.0057 C   0  0  0  0  0  0  0  0  0  0  0  0
    3.2749   -0.7390    1.1541 C   0  0  0  0  0  0  0  0  0  0  0  0
    2.6893    2.4085    0.5191 C   0  0  0  0  0  0  0  0  0  0  0  0
    2.1966   -2.8909    0.9364 C   0  0  0  0  0  0  0  0  0  0  0  0
   -1.1663   -0.3971   -0.8936 C   0  0  0  0  0  0  0  0  0  0  0  0
    3.2871   -2.1244    1.3269 C   0  0  0  0  0  0  0  0  0  0  0  0
    0.2819   -4.0133   -1.2886 C   0  0  0  0  0  0  0  0  0  0  0  0
   -2.4667    0.0997   -0.4039 C   0  0  0  0  0  0  0  0  0  0  0  0
    3.8337    2.5570   -0.4728 C   0  0  0  0  0  0  0  0  0  0  0  0
   -2.6240    0.4347    0.9411 C   0  0  0  0  0  0  0  0  0  0  0  0
   -3.5384    0.2355   -1.2864 C   0  0  0  0  0  0  0  0  0  0  0  0
   -3.8528    0.9053    1.4035 C   0  0  0  0  0  0  0  0  0  0  0  0
   -4.7672    0.7062   -0.8240 C   0  0  0  0  0  0  0  0  0  0  0  0
   -4.9246    1.0411    0.5209 C   0  0  0  0  0  0  0  0  0  0  0  0
   -0.0077    2.0740   -0.6612 H   0  0  0  0  0  0  0  0  0  0  0  0
   -0.1536   -3.9751    0.8087 H   0  0  0  0  0  0  0  0  0  0  0  0
   -0.9981   -2.7600   -0.0693 H   0  0  0  0  0  0  0  0  0  0  0  0
    4.1339   -0.1512    1.4663 H   0  0  0  0  0  0  0  0  0  0  0  0
    3.1231    2.3517    1.5244 H   0  0  0  0  0  0  0  0  0  0  0  0
    2.0869    3.3234    0.4655 H   0  0  0  0  0  0  0  0  0  0  0  0
    2.2398   -3.9672    1.0903 H   0  0  0  0  0  0  0  0  0  0  0  0
    4.1548   -2.6035    1.7718 H   0  0  0  0  0  0  0  0  0  0  0  0
    1.1811   -4.6299   -1.1850 H   0  0  0  0  0  0  0  0  0  0  0  0
   -0.5514   -4.6777   -1.5386 H   0  0  0  0  0  0  0  0  0  0  0  0
    0.4397   -3.3326   -2.1315 H   0  0  0  0  0  0  0  0  0  0  0  0
   -1.8056    0.3286    1.6481 H   0  0  0  0  0  0  0  0  0  0  0  0
   -3.4351   -0.0143   -2.3391 H   0  0  0  0  0  0  0  0  0  0  0  0
   -3.9615    1.1607    2.4545 H   0  0  0  0  0  0  0  0  0  0  0  0
   -5.5932    0.8083   -1.5232 H   0  0  0  0  0  0  0  0  0  0  0  0
    5.2946    3.7747   -0.9038 H   0  0  0  0  0  0  0  0  0  0  0  0
  1 24  1  0  0  0  0
  2 15  2  0  0  0  0
  3 19  1  0  0  0  0
  3 40  1  0  0  0  0
  4 19  2  0  0  0  0
  5  6  1  0  0  0  0
  5 10  1  0  0  0  0
  5 15  1  0  0  0  0
  6  7  1  0  0  0  0
  6  9  2  0  0  0  0
  7  8  1  0  0  0  0
  7 12  2  0  0  0  0
  8 10  2  0  0  0  0
  8 13  1  0  0  0  0
  9 11  1  0  0  0  0
  9 14  1  0  0  0  0
 10 25  1  0  0  0  0
 11 17  1  0  0  0  0
 11 26  1  0  0  0  0
 11 27  1  0  0  0  0
 12 16  1  0  0  0  0
 12 28  1  0  0  0  0
 13 19  1  0  0  0  0
 13 29  1  0  0  0  0
 13 30  1  0  0  0  0
 14 16  2  0  0  0  0
 14 31  1  0  0  0  0
 15 18  1  0  0  0  0
 16 32  1  0  0  0  0
 17 33  1  0  0  0  0
 17 34  1  0  0  0  0
 17 35  1  0  0  0  0
 18 20  2  0  0  0  0
 18 21  1  0  0  0  0
 20 22  1  0  0  0  0
 20 36  1  0  0  0  0
 21 23  2  0  0  0  0
 21 37  1  0  0  0  0
 22 24  2  0  0  0  0
 22 38  1  0  0  0  0
 23 24  1  0  0  0  0
 23 39  1  0  0  0  0
M  END
> <PUBCHEM_COMPOUND_CID>
70677689

> <PUBCHEM_CONFORMER_RMSD>
0.8

> <PUBCHEM_CONFORMER_DIVERSEORDER>
1
22
13
30
5
17
28
26
11
31
9
23
29
6
10
16
24
19
12
27
14
4
8
25
2
7
15
20
18
21
3

> <PUBCHEM_MMFF94_PARTIAL_CHARGES>
31
1 -0.18
10 -0.3
11 0.14
12 -0.15
13 0.24
14 -0.15
15 0.49
16 -0.15
18 0.09
19 0.66
2 -0.57
20 -0.15
21 -0.15
22 -0.15
23 -0.15
24 0.18
25 0.15
28 0.15
3 -0.65
31 0.15
32 0.15
36 0.15
37 0.15
38 0.15
39 0.15
4 -0.57
40 0.5
5 0.29
6 -0.15
8 -0.18
9 -0.14

> <PUBCHEM_EFFECTIVE_ROTOR_COUNT>
5

> <PUBCHEM_PHARMACOPHORE_FEATURES>
8
1 17 hydrophobe
1 2 acceptor
1 3 acceptor
1 4 acceptor
3 3 4 19 anion
5 5 6 7 8 10 rings
6 18 20 21 22 23 24 rings
6 6 7 9 12 14 16 rings

> <PUBCHEM_HEAVY_ATOM_COUNT>
24

> <PUBCHEM_ATOM_DEF_STEREO_COUNT>
0

> <PUBCHEM_ATOM_UDEF_STEREO_COUNT>
0

> <PUBCHEM_BOND_DEF_STEREO_COUNT>
0

> <PUBCHEM_BOND_UDEF_STEREO_COUNT>
0

> <PUBCHEM_ISOTOPIC_ATOM_COUNT>
0

> <PUBCHEM_COMPONENT_COUNT>
1

> <PUBCHEM_CACTVS_TAUTO_COUNT>
1

> <PUBCHEM_CONFORMER_ID>
043674B900000001

> <PUBCHEM_MMFF94_ENERGY>
65.4426

> <PUBCHEM_FEATURE_SELFOVERLAP>
40.743

> <PUBCHEM_SHAPE_FINGERPRINT>
1100329 8 18336254722341010290
12236239 1 17917417693046525059
12390115 104 18046355398891148268
12553582 1 18123461679218774391
12633257 1 18188205399629436027
12644460 14 18333731299593512136
12788726 201 17256516947579978744
12954195 1 17981047732521440702
13140716 1 18335416885020434658
13540713 5 18267847536191640062
13878862 14 18191001453694417205
13955234 65 18259984838568030018
14790565 3 18410011082844226900
14955137 171 18267306435216881866
15475509 35 16226602979559844896
15475509 8 18058459707963959134
15664445 248 17983872090183454534
1813 80 18054227627241808766
18785283 64 18186238420492369440
19784866 34 18264487454780362080
20157964 124 18339356358912457629
20510252 161 17257360272835063104
20645477 70 18188196624915836413
20715895 44 17338999630338263513
20739085 24 18261117335255131740
21120745 212 16312488397059386100
21756936 100 18127413564679890784
2255824 54 18341047419699671110
23557571 272 13901037017336336965
23559900 14 18269269067767169691
23845131 108 18188490301800125315
23929065 36 17335601490546146296
25147074 1 18269536377451173158
3178227 256 18261396598845541458
38570 142 18269291173626426940
458136 41 18260547853114862708
474 4 18341326721770888419
5048184 11 18338512070418874800
5104073 3 18187368727420884401
6034566 193 17825671315804205796
633830 44 18272371975158054013
8272917 22 18339645525584472371

> <PUBCHEM_SHAPE_MULTIPOLES>
473.19
10.21
4.07
1.4
14.14
1.42
-0.14
-8.4
2.38
-6.37
-0.73
0.43
0.33
-2

> <PUBCHEM_SHAPE_SELFOVERLAP>
1024.519

> <PUBCHEM_SHAPE_VOLUME>
260.4

> <PUBCHEM_COORDINATE_TYPE>
2
5
10

$$$$