134
 OpenBabel03292022003D

122127  0  0  0  0  0  0  0  0999 V2000
   -0.0732   10.4105   -3.0587 C   0  0  0  0  0  0  0  0  0  0  0  0
    1.3255   10.6404   -3.1549 O   0  0  0  0  0  0  0  0  0  0  0  0
    2.0401    9.4147   -3.2987 C   0  0  0  0  0  0  0  0  0  0  0  0
    3.5295    9.7105   -3.3972 C   0  0  0  0  0  0  0  0  0  0  0  0
    4.2404    8.4838   -3.5429 O   0  0  0  0  0  0  0  0  0  0  0  0
    5.6446    8.7118   -3.6417 C   0  0  0  0  0  0  0  0  0  0  0  0
    6.3443    7.3711   -3.7978 C   0  0  0  0  0  0  0  0  0  0  0  0
    7.7497    7.5674   -3.8979 O   0  0  0  0  0  0  0  0  0  0  0  0
    8.4213    6.3131   -4.0432 C   0  0  0  0  0  0  0  0  0  0  0  0
    9.9031    6.5825   -4.1400 C   0  0  0  0  0  0  0  0  0  0  0  0
   10.6504    5.3687   -4.3016 O   0  0  0  0  0  0  0  0  0  0  0  0
   12.0090    5.5748   -4.4254 C   0  0  0  0  0  0  0  0  0  0  0  0
   12.5599    6.8534   -4.3205 C   0  0  0  0  0  0  0  0  0  0  0  0
   13.9125    7.0610   -4.4698 C   0  0  0  0  0  0  0  0  0  0  0  0
   14.7582    5.9805   -4.6890 C   0  0  0  0  0  0  0  0  0  0  0  0
   14.2398    4.6872   -4.7691 C   0  0  0  0  0  0  0  0  0  0  0  0
   12.8614    4.4660   -4.6592 C   0  0  0  0  0  0  0  0  0  0  0  0
   12.2876    3.2234   -4.7712 O   0  0  0  0  0  0  0  0  0  0  0  0
   13.1689    2.1313   -5.0583 C   0  0  0  0  0  0  0  0  0  0  0  0
   12.3415    0.8653   -5.2238 C   0  0  0  0  0  0  0  0  0  0  0  0
   13.2029   -0.2439   -5.4822 O   0  0  0  0  0  0  0  0  0  0  0  0
   12.4481   -1.4449   -5.6377 C   0  0  0  0  0  0  0  0  0  0  0  0
   13.3937   -2.6054   -5.9084 C   0  0  0  0  0  0  0  0  0  0  0  0
   12.6332   -3.8021   -6.0626 O   0  0  0  0  0  0  0  0  0  0  0  0
   13.4838   -4.9180   -6.3186 C   0  0  0  0  0  0  0  0  0  0  0  0
   12.6325   -6.1694   -6.4757 C   0  0  0  0  0  0  0  0  0  0  0  0
   13.4805   -7.2872   -6.7320 O   0  0  0  0  0  0  0  0  0  0  0  0
   12.7240   -8.4799   -6.8856 C   0  0  0  0  0  0  0  0  0  0  0  0
   16.2266    6.2712   -4.7510 C   0  0  0  0  0  0  0  0  0  0  0  0
   16.5718    7.4826   -5.5198 N   0  0  0  0  0  0  0  0  0  0  0  0
   17.8485    8.0429   -5.0592 C   0  0  0  0  0  0  0  0  0  0  0  0
   19.0233    7.0559   -5.1921 C   0  0  0  0  0  0  0  0  0  0  0  0
   19.2351    6.6069   -6.6154 C   0  0  0  0  0  0  0  0  0  0  0  0
   19.5151    7.5323   -7.6213 C   0  0  0  0  0  0  0  0  0  0  0  0
   19.5754    7.1193   -8.9512 C   0  0  0  0  0  0  0  0  0  0  0  0
   19.4145    5.7656   -9.3136 C   0  0  0  0  0  0  0  0  0  0  0  0
   19.4815    5.3378  -10.7304 C   0  0  0  0  0  0  0  0  0  0  0  0
   20.3438    6.0015  -11.6044 C   0  0  0  0  0  0  0  0  0  0  0  0
   20.3951    5.6255  -12.9397 C   0  0  0  0  0  0  0  0  0  0  0  0
   19.6156    4.5394  -13.4508 C   0  0  0  0  0  0  0  0  0  0  0  0
   19.9210    4.2973  -14.8856 C   0  0  0  0  0  0  0  0  0  0  0  0
   20.6178    5.0244  -15.6174 O   0  0  0  0  0  0  0  0  0  0  0  0
   19.3799    3.1073  -15.2470 O   0  0  0  0  0  0  0  0  0  0  0  0
   19.7678    2.7055  -16.5505 C   0  0  0  0  0  0  0  0  0  0  0  0
   18.6920    3.8528  -12.6083 C   0  0  0  0  0  0  0  0  0  0  0  0
   17.7903    2.7341  -13.0242 N   0  0  0  0  0  0  0  0  0  0  0  0
   16.3960    2.7357  -12.7259 C   0  0  0  0  0  0  0  0  0  0  0  0
   15.9545    3.6593  -12.0230 O   0  0  0  0  0  0  0  0  0  0  0  0
   15.2796    1.7347  -13.2725 C   0  0  0  0  0  0  0  0  0  0  0  0
   14.0351    2.2924  -13.0760 C   0  0  0  0  0  0  0  0  0  0  0  0
   12.9528    1.4415  -13.0076 C   0  0  0  0  0  0  0  0  0  0  0  0
   12.8103    0.5096  -13.9981 C   0  0  0  0  0  0  0  0  0  0  0  0
   11.4967    0.1065  -14.3453 C   0  0  0  0  0  0  0  0  0  0  0  0
   11.2584   -0.7210  -15.4224 C   0  0  0  0  0  0  0  0  0  0  0  0
   12.3731   -1.1772  -16.1030 C   0  0  0  0  0  0  0  0  0  0  0  0
   13.6849   -0.7935  -15.6772 C   0  0  0  0  0  0  0  0  0  0  0  0
   14.0178    0.1053  -14.6042 C   0  0  0  0  0  0  0  0  0  0  0  0
   15.3006    0.6493  -14.1288 N   0  0  0  0  0  0  0  0  0  0  0  0
   18.6775    4.2764  -11.2514 C   0  0  0  0  0  0  0  0  0  0  0  0
   19.1758    4.8467   -8.2836 C   0  0  0  0  0  0  0  0  0  0  0  0
   19.0721    5.2612   -6.9565 C   0  0  0  0  0  0  0  0  0  0  0  0
   15.5202    8.5127   -5.5811 C   0  0  0  0  0  0  0  0  0  0  0  0
   14.4968    8.4396   -4.4513 C   0  0  0  0  0  0  0  0  0  0  0  0
   -0.5743   11.3757   -2.9504 H   0  0  0  0  0  0  0  0  0  0  0  0
   -0.2990    9.7969   -2.1813 H   0  0  0  0  0  0  0  0  0  0  0  0
   -0.4425    9.9226   -3.9659 H   0  0  0  0  0  0  0  0  0  0  0  0
    1.7059    8.8865   -4.1999 H   0  0  0  0  0  0  0  0  0  0  0  0
    1.8472    8.7623   -2.4383 H   0  0  0  0  0  0  0  0  0  0  0  0
    3.8663   10.2346   -2.4950 H   0  0  0  0  0  0  0  0  0  0  0  0
    3.7243   10.3618   -4.2575 H   0  0  0  0  0  0  0  0  0  0  0  0
    6.0084    9.2231   -2.7423 H   0  0  0  0  0  0  0  0  0  0  0  0
    5.8637    9.3524   -4.5044 H   0  0  0  0  0  0  0  0  0  0  0  0
    5.9768    6.8634   -4.6970 H   0  0  0  0  0  0  0  0  0  0  0  0
    6.1208    6.7336   -2.9346 H   0  0  0  0  0  0  0  0  0  0  0  0
    8.0775    5.8041   -4.9490 H   0  0  0  0  0  0  0  0  0  0  0  0
    8.2191    5.6769   -3.1759 H   0  0  0  0  0  0  0  0  0  0  0  0
   10.2044    7.1023   -3.2178 H   0  0  0  0  0  0  0  0  0  0  0  0
   10.0667    7.2534   -4.9970 H   0  0  0  0  0  0  0  0  0  0  0  0
   11.9623    7.7420   -4.1546 H   0  0  0  0  0  0  0  0  0  0  0  0
   14.9404    3.8726   -4.9284 H   0  0  0  0  0  0  0  0  0  0  0  0
   13.8838    1.9829   -4.2379 H   0  0  0  0  0  0  0  0  0  0  0  0
   13.7324    2.3036   -5.9858 H   0  0  0  0  0  0  0  0  0  0  0  0
   11.6385    0.9914   -6.0551 H   0  0  0  0  0  0  0  0  0  0  0  0
   11.7628    0.6823   -4.3115 H   0  0  0  0  0  0  0  0  0  0  0  0
   11.7418   -1.3399   -6.4700 H   0  0  0  0  0  0  0  0  0  0  0  0
   11.8674   -1.6440   -4.7290 H   0  0  0  0  0  0  0  0  0  0  0  0
   14.0991   -2.7128   -5.0758 H   0  0  0  0  0  0  0  0  0  0  0  0
   13.9739   -2.4087   -6.8178 H   0  0  0  0  0  0  0  0  0  0  0  0
   14.1904   -5.0497   -5.4904 H   0  0  0  0  0  0  0  0  0  0  0  0
   14.0652   -4.7457   -7.2322 H   0  0  0  0  0  0  0  0  0  0  0  0
   11.9250   -6.0354   -7.3028 H   0  0  0  0  0  0  0  0  0  0  0  0
   12.0504   -6.3394   -5.5619 H   0  0  0  0  0  0  0  0  0  0  0  0
   13.4151   -9.3040   -7.0795 H   0  0  0  0  0  0  0  0  0  0  0  0
   12.0383   -8.3895   -7.7335 H   0  0  0  0  0  0  0  0  0  0  0  0
   12.1656   -8.6974   -5.9701 H   0  0  0  0  0  0  0  0  0  0  0  0
   16.7427    5.4085   -5.1834 H   0  0  0  0  0  0  0  0  0  0  0  0
   16.5600    6.3666   -3.7084 H   0  0  0  0  0  0  0  0  0  0  0  0
   17.7595    8.3622   -4.0137 H   0  0  0  0  0  0  0  0  0  0  0  0
   18.0777    8.9429   -5.6433 H   0  0  0  0  0  0  0  0  0  0  0  0
   18.8515    6.1819   -4.5513 H   0  0  0  0  0  0  0  0  0  0  0  0
   19.9417    7.5198   -4.8189 H   0  0  0  0  0  0  0  0  0  0  0  0
   19.6363    8.5883   -7.3892 H   0  0  0  0  0  0  0  0  0  0  0  0
   19.7117    7.8872   -9.7098 H   0  0  0  0  0  0  0  0  0  0  0  0
   20.9886    6.8135  -11.2643 H   0  0  0  0  0  0  0  0  0  0  0  0
   21.0598    6.2017  -13.5880 H   0  0  0  0  0  0  0  0  0  0  0  0
   19.2301    1.7840  -16.7746 H   0  0  0  0  0  0  0  0  0  0  0  0
   20.8472    2.5020  -16.5792 H   0  0  0  0  0  0  0  0  0  0  0  0
   19.4978    3.4637  -17.2901 H   0  0  0  0  0  0  0  0  0  0  0  0
   18.1389    2.0944  -13.7240 H   0  0  0  0  0  0  0  0  0  0  0  0
   13.9362    2.9620  -13.9736 H   0  0  0  0  0  0  0  0  0  0  0  0
   12.4660    1.2410  -12.0519 H   0  0  0  0  0  0  0  0  0  0  0  0
   10.6188    0.5305  -13.8269 H   0  0  0  0  0  0  0  0  0  0  0  0
   10.2454   -0.9691  -15.7446 H   0  0  0  0  0  0  0  0  0  0  0  0
   12.2226   -1.7751  -17.0092 H   0  0  0  0  0  0  0  0  0  0  0  0
   14.5182   -1.1859  -16.2695 H   0  0  0  0  0  0  0  0  0  0  0  0
   18.0254    3.7531  -10.5530 H   0  0  0  0  0  0  0  0  0  0  0  0
   19.0421    3.7908   -8.5006 H   0  0  0  0  0  0  0  0  0  0  0  0
   18.8222    4.5246   -6.1976 H   0  0  0  0  0  0  0  0  0  0  0  0
   14.9942    8.3800   -6.5380 H   0  0  0  0  0  0  0  0  0  0  0  0
   15.9357    9.5267   -5.6225 H   0  0  0  0  0  0  0  0  0  0  0  0
   13.7174    9.1923   -4.6162 H   0  0  0  0  0  0  0  0  0  0  0  0
   14.9572    8.6330   -3.4767 H   0  0  0  0  0  0  0  0  0  0  0  0
  1  2  1  0  0  0  0
  1 64  1  0  0  0  0
  1 65  1  0  0  0  0
  1 66  1  0  0  0  0
  2  3  1  0  0  0  0
  3  4  1  0  0  0  0
  3 67  1  0  0  0  0
  3 68  1  0  0  0  0
  4  5  1  0  0  0  0
  4 69  1  0  0  0  0
  4 70  1  0  0  0  0
  5  6  1  0  0  0  0
  6  7  1  0  0  0  0
  6 71  1  0  0  0  0
  6 72  1  0  0  0  0
  7  8  1  0  0  0  0
  7 73  1  0  0  0  0
  7 74  1  0  0  0  0
  8  9  1  0  0  0  0
  9 10  1  0  0  0  0
  9 75  1  0  0  0  0
  9 76  1  0  0  0  0
 10 11  1  0  0  0  0
 10 77  1  0  0  0  0
 10 78  1  0  0  0  0
 11 12  1  0  0  0  0
 12 13  1  0  0  0  0
 12 17  2  0  0  0  0
 13 14  2  0  0  0  0
 13 79  1  0  0  0  0
 14 15  1  0  0  0  0
 14 63  1  0  0  0  0
 15 16  2  0  0  0  0
 15 29  1  0  0  0  0
 16 17  1  0  0  0  0
 16 80  1  0  0  0  0
 17 18  1  0  0  0  0
 18 19  1  0  0  0  0
 19 20  1  0  0  0  0
 19 81  1  0  0  0  0
 19 82  1  0  0  0  0
 20 21  1  0  0  0  0
 20 83  1  0  0  0  0
 20 84  1  0  0  0  0
 21 22  1  0  0  0  0
 22 23  1  0  0  0  0
 22 85  1  0  0  0  0
 22 86  1  0  0  0  0
 23 24  1  0  0  0  0
 23 87  1  0  0  0  0
 23 88  1  0  0  0  0
 24 25  1  0  0  0  0
 25 26  1  0  0  0  0
 25 89  1  0  0  0  0
 25 90  1  0  0  0  0
 26 27  1  0  0  0  0
 26 91  1  0  0  0  0
 26 92  1  0  0  0  0
 27 28  1  0  0  0  0
 28 93  1  0  0  0  0
 28 94  1  0  0  0  0
 28 95  1  0  0  0  0
 29 30  1  0  0  0  0
 29 96  1  0  0  0  0
 29 97  1  0  0  0  0
 30 31  1  0  0  0  0
 30 62  1  0  0  0  0
 31 32  1  0  0  0  0
 31 98  1  0  0  0  0
 31 99  1  0  0  0  0
 32 33  1  0  0  0  0
 32100  1  0  0  0  0
 32101  1  0  0  0  0
 33 34  1  0  0  0  0
 33 61  2  0  0  0  0
 34 35  2  0  0  0  0
 34102  1  0  0  0  0
 35 36  1  0  0  0  0
 35103  1  0  0  0  0
 36 37  1  0  0  0  0
 36 60  2  0  0  0  0
 37 38  1  0  0  0  0
 37 59  2  0  0  0  0
 38 39  2  0  0  0  0
 38104  1  0  0  0  0
 39 40  1  0  0  0  0
 39105  1  0  0  0  0
 40 41  1  0  0  0  0
 40 45  2  0  0  0  0
 41 42  2  0  0  0  0
 41 43  1  0  0  0  0
 43 44  1  0  0  0  0
 44106  1  0  0  0  0
 44107  1  0  0  0  0
 44108  1  0  0  0  0
 45 46  1  0  0  0  0
 45 59  1  0  0  0  0
 46 47  1  0  0  0  0
 46109  1  0  0  0  0
 47 48  2  0  0  0  0
 47 49  1  0  0  0  0
 49 50  1  0  0  0  0
 49 58  2  0  0  0  0
 50 51  2  0  0  0  0
 50110  1  0  0  0  0
 51 52  1  0  0  0  0
 51111  1  0  0  0  0
 52 53  1  0  0  0  0
 52 57  2  0  0  0  0
 53 54  2  0  0  0  0
 53112  1  0  0  0  0
 54 55  1  0  0  0  0
 54113  1  0  0  0  0
 55 56  2  0  0  0  0
 55114  1  0  0  0  0
 56 57  1  0  0  0  0
 56115  1  0  0  0  0
 57 58  1  0  0  0  0
 59116  1  0  0  0  0
 60 61  1  0  0  0  0
 60117  1  0  0  0  0
 61118  1  0  0  0  0
 62 63  1  0  0  0  0
 62119  1  0  0  0  0
 62120  1  0  0  0  0
 63121  1  0  0  0  0
 63122  1  0  0  0  0
M  END
>  <Energy>
439.463

$$$$