71624546
  -OEChem-03242010103D

 69 74  0     1  0  0  0  0  0999 V2000
    3.3938   -4.5701   -0.1804 O   0  0  0  0  0  0  0  0  0  0  0  0
    2.7329    1.7762   -0.1554 O   0  0  0  0  0  0  0  0  0  0  0  0
    4.4769   -2.8679    0.9280 O   0  0  0  0  0  0  0  0  0  0  0  0
   -6.2243    0.9278   -0.4113 N   0  0  1  0  0  0  0  0  0  0  0  0
    3.4423   -0.4535    0.0710 N   0  0  0  0  0  0  0  0  0  0  0  0
    8.9357    2.7815    0.4555 N   0  0  0  0  0  0  0  0  0  0  0  0
   -6.2458    1.1342    1.0420 C   0  0  0  0  0  0  0  0  0  0  0  0
   -7.4919    1.3835   -1.0090 C   0  0  0  0  0  0  0  0  0  0  0  0
   -7.3041    0.2290    1.6807 C   0  0  0  0  0  0  0  0  0  0  0  0
   -8.7139    0.8038   -0.3341 C   0  0  0  0  0  0  0  0  0  0  0  0
   -8.6321    0.2914    0.9721 C   0  0  0  0  0  0  0  0  0  0  0  0
   -5.0938    1.6291   -1.0185 C   0  0  0  0  0  0  0  0  0  0  0  0
   -3.7990    0.8889   -0.8127 C   0  0  0  0  0  0  0  0  0  0  0  0
   -9.9532    0.8334   -0.9880 C   0  0  0  0  0  0  0  0  0  0  0  0
   -9.7816   -0.2176    1.5902 C   0  0  0  0  0  0  0  0  0  0  0  0
  -11.0939    0.3331   -0.3605 C   0  0  0  0  0  0  0  0  0  0  0  0
  -11.0077   -0.1938    0.9262 C   0  0  0  0  0  0  0  0  0  0  0  0
   -2.7385    1.5093   -0.1522 C   0  0  0  0  0  0  0  0  0  0  0  0
   -3.6598   -0.4171   -1.2827 C   0  0  0  0  0  0  0  0  0  0  0  0
   -1.3995   -0.4822   -0.4318 C   0  0  0  0  0  0  0  0  0  0  0  0
   -1.5388    0.8236    0.0383 C   0  0  0  0  0  0  0  0  0  0  0  0
   -2.4602   -1.1026   -1.0922 C   0  0  0  0  0  0  0  0  0  0  0  0
   -0.1550   -1.1937   -0.2339 C   0  0  0  0  0  0  0  0  0  0  0  0
    1.0487   -0.4913   -0.1755 C   0  0  0  0  0  0  0  0  0  0  0  0
   -0.1595   -2.5822   -0.1004 C   0  0  0  0  0  0  0  0  0  0  0  0
    2.2479   -1.1774    0.0167 C   0  0  0  0  0  0  0  0  0  0  0  0
    2.2433   -2.5658    0.1503 C   0  0  0  0  0  0  0  0  0  0  0  0
    1.0395   -3.2683    0.0917 C   0  0  0  0  0  0  0  0  0  0  0  0
    3.6124    0.9332   -0.0149 C   0  0  0  0  0  0  0  0  0  0  0  0
    5.0152    1.4098    0.1057 C   0  0  0  0  0  0  0  0  0  0  0  0
    3.4784   -3.3133    0.3506 C   0  0  0  0  0  0  0  0  0  0  0  0
    7.3982    1.0285   -0.1532 C   0  0  0  0  0  0  0  0  0  0  0  0
    6.0707    0.5815   -0.2648 C   0  0  0  0  0  0  0  0  0  0  0  0
    7.6756    2.3222    0.3359 C   0  0  0  0  0  0  0  0  0  0  0  0
    5.2812    2.6853    0.5883 C   0  0  0  0  0  0  0  0  0  0  0  0
    6.6010    3.1294    0.6992 C   0  0  0  0  0  0  0  0  0  0  0  0
    8.4796    0.2156   -0.5190 C   0  0  0  0  0  0  0  0  0  0  0  0
    9.7791    0.6861   -0.3969 C   0  0  0  0  0  0  0  0  0  0  0  0
    9.9511    1.9654    0.0914 C   0  0  0  0  0  0  0  0  0  0  0  0
    4.5491   -5.4050   -0.0464 C   0  0  0  0  0  0  0  0  0  0  0  0
   -6.4543    2.1857    1.2833 H   0  0  0  0  0  0  0  0  0  0  0  0
   -5.2808    0.8852    1.4987 H   0  0  0  0  0  0  0  0  0  0  0  0
   -7.5065    1.0825   -2.0641 H   0  0  0  0  0  0  0  0  0  0  0  0
   -7.5699    2.4783   -0.9661 H   0  0  0  0  0  0  0  0  0  0  0  0
   -6.9556   -0.8115    1.6598 H   0  0  0  0  0  0  0  0  0  0  0  0
   -7.4295    0.5191    2.7307 H   0  0  0  0  0  0  0  0  0  0  0  0
   -5.2307    1.7015   -2.1067 H   0  0  0  0  0  0  0  0  0  0  0  0
   -5.0257    2.6644   -0.6581 H   0  0  0  0  0  0  0  0  0  0  0  0
  -10.0352    1.2467   -1.9900 H   0  0  0  0  0  0  0  0  0  0  0  0
   -9.7266   -0.6353    2.5923 H   0  0  0  0  0  0  0  0  0  0  0  0
  -12.0500    0.3553   -0.8753 H   0  0  0  0  0  0  0  0  0  0  0  0
  -11.8958   -0.5865    1.4127 H   0  0  0  0  0  0  0  0  0  0  0  0
   -2.8363    2.5231    0.2269 H   0  0  0  0  0  0  0  0  0  0  0  0
   -4.4733   -0.9087   -1.8098 H   0  0  0  0  0  0  0  0  0  0  0  0
   -0.7555    1.3364    0.5897 H   0  0  0  0  0  0  0  0  0  0  0  0
   -2.3873   -2.1057   -1.5033 H   0  0  0  0  0  0  0  0  0  0  0  0
    1.0167    0.5733   -0.3398 H   0  0  0  0  0  0  0  0  0  0  0  0
   -1.0751   -3.1674   -0.1052 H   0  0  0  0  0  0  0  0  0  0  0  0
    0.9985   -4.3476    0.2135 H   0  0  0  0  0  0  0  0  0  0  0  0
    4.2675   -1.0168    0.2451 H   0  0  0  0  0  0  0  0  0  0  0  0
    5.8990   -0.4069   -0.6840 H   0  0  0  0  0  0  0  0  0  0  0  0
    4.4781    3.3525    0.8901 H   0  0  0  0  0  0  0  0  0  0  0  0
    6.7830    4.1323    1.0812 H   0  0  0  0  0  0  0  0  0  0  0  0
    8.3156   -0.7894   -0.9010 H   0  0  0  0  0  0  0  0  0  0  0  0
   10.6268    0.0710   -0.6750 H   0  0  0  0  0  0  0  0  0  0  0  0
   10.9441    2.3868    0.2087 H   0  0  0  0  0  0  0  0  0  0  0  0
    4.3308   -6.3667   -0.5179 H   0  0  0  0  0  0  0  0  0  0  0  0
    4.7718   -5.5732    1.0114 H   0  0  0  0  0  0  0  0  0  0  0  0
    5.4045   -4.9493   -0.5538 H   0  0  0  0  0  0  0  0  0  0  0  0
  1 31  1  0  0  0  0
  1 40  1  0  0  0  0
  2 29  2  0  0  0  0
  3 31  2  0  0  0  0
  4  7  1  0  0  0  0
  4  8  1  0  0  0  0
  4 12  1  0  0  0  0
  5 26  1  0  0  0  0
  5 29  1  0  0  0  0
  5 60  1  0  0  0  0
  6 34  1  0  0  0  0
  6 39  2  0  0  0  0
  7  9  1  0  0  0  0
  7 41  1  0  0  0  0
  7 42  1  0  0  0  0
  8 10  1  0  0  0  0
  8 43  1  0  0  0  0
  8 44  1  0  0  0  0
  9 11  1  0  0  0  0
  9 45  1  0  0  0  0
  9 46  1  0  0  0  0
 10 11  1  0  0  0  0
 10 14  2  0  0  0  0
 11 15  2  0  0  0  0
 12 13  1  0  0  0  0
 12 47  1  0  0  0  0
 12 48  1  0  0  0  0
 13 18  2  0  0  0  0
 13 19  1  0  0  0  0
 14 16  1  0  0  0  0
 14 49  1  0  0  0  0
 15 17  1  0  0  0  0
 15 50  1  0  0  0  0
 16 17  2  0  0  0  0
 16 51  1  0  0  0  0
 17 52  1  0  0  0  0
 18 21  1  0  0  0  0
 18 53  1  0  0  0  0
 19 22  2  0  0  0  0
 19 54  1  0  0  0  0
 20 21  2  0  0  0  0
 20 22  1  0  0  0  0
 20 23  1  0  0  0  0
 21 55  1  0  0  0  0
 22 56  1  0  0  0  0
 23 24  2  0  0  0  0
 23 25  1  0  0  0  0
 24 26  1  0  0  0  0
 24 57  1  0  0  0  0
 25 28  2  0  0  0  0
 25 58  1  0  0  0  0
 26 27  2  0  0  0  0
 27 28  1  0  0  0  0
 27 31  1  0  0  0  0
 28 59  1  0  0  0  0
 29 30  1  0  0  0  0
 30 33  2  0  0  0  0
 30 35  1  0  0  0  0
 32 33  1  0  0  0  0
 32 34  2  0  0  0  0
 32 37  1  0  0  0  0
 33 61  1  0  0  0  0
 34 36  1  0  0  0  0
 35 36  2  0  0  0  0
 35 62  1  0  0  0  0
 36 63  1  0  0  0  0
 37 38  2  0  0  0  0
 37 64  1  0  0  0  0
 38 39  1  0  0  0  0
 38 65  1  0  0  0  0
 39 66  1  0  0  0  0
 40 67  1  0  0  0  0
 40 68  1  0  0  0  0
 40 69  1  0  0  0  0
M  END
> <PUBCHEM_COMPOUND_CID>
71624546

> <PUBCHEM_CONFORMER_RMSD>
1.2

> <PUBCHEM_CONFORMER_DIVERSEORDER>
3
66
105
95
23
90
102
98
27
91
84
21
97
5
88
50
59
68
36
85
89
11
77
101
54
99
8
69
16
65
42
1
34
46
43
92
80
41
74
33
39
76
28
60
81
31
82
32
61
96
10
55
57
104
64
94
67
75
49
48
17
19
13
93
52
53
62
37
73
47
7
30
63
18
79
100
40
35
78
45
87
44
38
4
26
70
51
2
24
25
83
9
58
56
71
103
12
6
22
29
20
86
14
15
72

> <PUBCHEM_MMFF94_PARTIAL_CHARGES>
55
1 -0.43
10 -0.14
11 -0.14
12 0.41
13 -0.14
14 -0.15
15 -0.15
16 -0.15
17 -0.15
18 -0.15
19 -0.15
2 -0.57
21 -0.15
22 -0.15
24 -0.15
25 -0.15
26 0.12
27 0.09
28 -0.15
29 0.54
3 -0.57
30 0.09
31 0.63
33 -0.15
34 0.31
35 -0.15
36 -0.15
37 -0.15
38 -0.15
39 0.16
4 -0.81
40 0.28
49 0.15
5 -0.55
50 0.15
51 0.15
52 0.15
53 0.15
54 0.15
55 0.15
56 0.15
57 0.15
58 0.15
59 0.15
6 -0.62
60 0.37
61 0.15
62 0.15
63 0.15
64 0.15
65 0.15
66 0.15
7 0.27
8 0.41
9 0.14

> <PUBCHEM_EFFECTIVE_ROTOR_COUNT>
8.8

> <PUBCHEM_PHARMACOPHORE_FEATURES>
11
1 2 acceptor
1 3 acceptor
1 4 cation
1 5 donor
1 6 acceptor
6 10 11 14 15 16 17 rings
6 13 18 19 20 21 22 rings
6 23 24 25 26 27 28 rings
6 30 32 33 34 35 36 rings
6 4 7 8 9 10 11 rings
6 6 32 34 37 38 39 rings

> <PUBCHEM_HEAVY_ATOM_COUNT>
40

> <PUBCHEM_ATOM_DEF_STEREO_COUNT>
0

> <PUBCHEM_ATOM_UDEF_STEREO_COUNT>
0

> <PUBCHEM_BOND_DEF_STEREO_COUNT>
0

> <PUBCHEM_BOND_UDEF_STEREO_COUNT>
0

> <PUBCHEM_ISOTOPIC_ATOM_COUNT>
0

> <PUBCHEM_COMPONENT_COUNT>
1

> <PUBCHEM_CACTVS_TAUTO_COUNT>
5

> <PUBCHEM_CONFORMER_ID>
0444E76200000003

> <PUBCHEM_MMFF94_ENERGY>
139.6883

> <PUBCHEM_FEATURE_SELFOVERLAP>
55.878

> <PUBCHEM_SHAPE_FINGERPRINT>
10 15 18113615686347423505
10076449 9 12391519680952726281
10165383 225 18410290328906692012
10391435 84 17894917343827104083
10674148 151 15482670186976300113
10930396 42 16950278529903140229
11135926 11 18410002256469675724
11409948 8 18187936114481658699
11411753 3 17679009414327663503
11966995 178 18341615898056321606
12013929 94 18341332284771817079
12098696 120 18409445891033739988
12522641 33 18333731320931276659
13008946 335 18186522124499637346
13740195 50 18260830432051454745
13947947 74 18131067143098462536
14040221 8 13614248100300840834
14118638 360 18270964544598739881
15065858 18 18187364300253775559
15328684 2 17274267128703049947
15347591 1 18195246612296636025
15392192 104 18334010596800368171
15419008 91 17750220440959208013
15890870 6 18410292532288419608
16067689 302 18411420566340126695
16758388 162 18261099765767679672
16992610 120 16200154309807436229
19302320 297 18186799227706334780
19315958 150 18408606955346261675
20501277 279 18409167727872466289
20505436 4 18201994447772919590
21033648 29 18197205053270307008
21781055 127 16271933666472595711
24893992 56 18343016730913827697
249057 3 9655573016031908341
3092352 35 17131833179599648277
3991529 128 17095527332059027428
4149490 64 18261108543441337306
4516262 110 18411130338267422780
474113 269 8358261440513778363
4874694 18 17894349991342423763
5028188 123 15697996358818534461
5385378 56 18408884023759989750
54076057 127 18411985728049029571
59521660 218 18337389344609058059
6081469 158 11384116349257926832
6126387 218 11891326557020822061
9962374 69 18267855104304252599

> <PUBCHEM_SHAPE_MULTIPOLES>
790.63
39.85
4.27
1.07
48.15
6.61
0.13
-26.6
5.1
-12.67
0.44
2.37
-0.14
1.19

> <PUBCHEM_SHAPE_SELFOVERLAP>
1760.033

> <PUBCHEM_SHAPE_VOLUME>
419.2

> <PUBCHEM_COORDINATE_TYPE>
2
5
10

$$$$