71624648
  -OEChem-03242010103D

 77 82  0     1  0  0  0  0  0999 V2000
   -9.0480    1.5145   -1.7090 O   0  0  0  0  0  0  0  0  0  0  0  0
   -9.9223   -1.0261   -2.4143 O   0  0  0  0  0  0  0  0  0  0  0  0
    3.6724    4.8724   -1.1279 O   0  0  0  0  0  0  0  0  0  0  0  0
    3.6874   -1.2531    0.6169 O   0  0  0  0  0  0  0  0  0  0  0  0
    5.2289    3.5486   -0.0678 O   0  0  0  0  0  0  0  0  0  0  0  0
   -4.8864   -1.6022    1.5168 N   0  0  1  0  0  0  0  0  0  0  0  0
    4.2264    0.9824    0.1286 N   0  0  0  0  0  0  0  0  0  0  0  0
    9.8123   -1.9375   -0.8096 N   0  0  0  0  0  0  0  0  0  0  0  0
   -5.7507   -2.7587    1.7832 C   0  0  0  0  0  0  0  0  0  0  0  0
   -5.7025   -0.3902    1.3257 C   0  0  0  0  0  0  0  0  0  0  0  0
   -6.5970   -3.0722    0.5453 C   0  0  0  0  0  0  0  0  0  0  0  0
   -6.8065   -0.5667    0.3085 C   0  0  0  0  0  0  0  0  0  0  0  0
   -7.2649   -1.8511   -0.0316 C   0  0  0  0  0  0  0  0  0  0  0  0
   -3.9310   -1.4061    2.6065 C   0  0  0  0  0  0  0  0  0  0  0  0
   -7.4239    0.5583   -0.2548 C   0  0  0  0  0  0  0  0  0  0  0  0
   -8.3073   -1.9928   -0.9566 C   0  0  0  0  0  0  0  0  0  0  0  0
   -2.7241   -0.6246    2.1601 C   0  0  0  0  0  0  0  0  0  0  0  0
   -8.4675    0.4073   -1.1677 C   0  0  0  0  0  0  0  0  0  0  0  0
   -8.9070   -0.8668   -1.5199 C   0  0  0  0  0  0  0  0  0  0  0  0
   -2.5954    0.7198    2.5092 C   0  0  0  0  0  0  0  0  0  0  0  0
   -1.7344   -1.2451    1.3976 C   0  0  0  0  0  0  0  0  0  0  0  0
   -0.4874    0.8232    1.3333 C   0  0  0  0  0  0  0  0  0  0  0  0
   -1.4772    1.4436    2.0956 C   0  0  0  0  0  0  0  0  0  0  0  0
   -0.6162   -0.5211    0.9841 C   0  0  0  0  0  0  0  0  0  0  0  0
    0.6726    1.5744    0.9041 C   0  0  0  0  0  0  0  0  0  0  0  0
    1.8944    0.9270    0.7204 C   0  0  0  0  0  0  0  0  0  0  0  0
   -8.5388    2.7810   -1.2952 C   0  0  0  0  0  0  0  0  0  0  0  0
   -9.5627   -1.1296   -3.7908 C   0  0  0  0  0  0  0  0  0  0  0  0
    0.5683    2.9461    0.6728 C   0  0  0  0  0  0  0  0  0  0  0  0
    3.0119    1.6512    0.3053 C   0  0  0  0  0  0  0  0  0  0  0  0
    2.9076    3.0228    0.0741 C   0  0  0  0  0  0  0  0  0  0  0  0
    1.6857    3.6702    0.2578 C   0  0  0  0  0  0  0  0  0  0  0  0
    4.4874   -0.3835    0.2885 C   0  0  0  0  0  0  0  0  0  0  0  0
    4.0558    3.8092   -0.3588 C   0  0  0  0  0  0  0  0  0  0  0  0
    5.8840   -0.8017   -0.0021 C   0  0  0  0  0  0  0  0  0  0  0  0
    6.1525   -2.0998   -0.4266 C   0  0  0  0  0  0  0  0  0  0  0  0
    7.4712   -2.4989   -0.7032 C   0  0  0  0  0  0  0  0  0  0  0  0
    6.9295    0.1009    0.1479 C   0  0  0  0  0  0  0  0  0  0  0  0
    8.5375   -1.5877   -0.5532 C   0  0  0  0  0  0  0  0  0  0  0  0
    8.2403   -0.2962   -0.1270 C   0  0  0  0  0  0  0  0  0  0  0  0
    7.7698   -3.7992   -1.1321 C   0  0  0  0  0  0  0  0  0  0  0  0
    9.0822   -4.1626   -1.3971 C   0  0  0  0  0  0  0  0  0  0  0  0
   10.0580   -3.2024   -1.2215 C   0  0  0  0  0  0  0  0  0  0  0  0
    4.7150    5.7235   -1.6158 C   0  0  0  0  0  0  0  0  0  0  0  0
   -6.3979   -2.5697    2.6504 H   0  0  0  0  0  0  0  0  0  0  0  0
   -5.1522   -3.6490    2.0125 H   0  0  0  0  0  0  0  0  0  0  0  0
   -5.0571    0.4244    0.9766 H   0  0  0  0  0  0  0  0  0  0  0  0
   -6.1683   -0.0766    2.2697 H   0  0  0  0  0  0  0  0  0  0  0  0
   -7.3546   -3.8176    0.8153 H   0  0  0  0  0  0  0  0  0  0  0  0
   -5.9586   -3.5101   -0.2327 H   0  0  0  0  0  0  0  0  0  0  0  0
   -3.5532   -2.3750    2.9632 H   0  0  0  0  0  0  0  0  0  0  0  0
   -4.3987   -0.9450    3.4872 H   0  0  0  0  0  0  0  0  0  0  0  0
   -7.0437    1.5241    0.0620 H   0  0  0  0  0  0  0  0  0  0  0  0
   -8.6519   -2.9853   -1.2377 H   0  0  0  0  0  0  0  0  0  0  0  0
   -3.3567    1.2131    3.1077 H   0  0  0  0  0  0  0  0  0  0  0  0
   -1.8276   -2.2899    1.1130 H   0  0  0  0  0  0  0  0  0  0  0  0
   -1.4058    2.4790    2.4172 H   0  0  0  0  0  0  0  0  0  0  0  0
    0.1089   -1.0390    0.3624 H   0  0  0  0  0  0  0  0  0  0  0  0
    1.9482   -0.1213    0.9640 H   0  0  0  0  0  0  0  0  0  0  0  0
   -9.1145    3.5475   -1.8245 H   0  0  0  0  0  0  0  0  0  0  0  0
   -7.4919    2.9114   -1.5898 H   0  0  0  0  0  0  0  0  0  0  0  0
   -8.6963    2.9495   -0.2244 H   0  0  0  0  0  0  0  0  0  0  0  0
  -10.4788   -1.2443   -4.3765 H   0  0  0  0  0  0  0  0  0  0  0  0
   -8.9291   -2.0067   -3.9564 H   0  0  0  0  0  0  0  0  0  0  0  0
   -9.0456   -0.2240   -4.1234 H   0  0  0  0  0  0  0  0  0  0  0  0
   -0.3680    3.4875    0.7757 H   0  0  0  0  0  0  0  0  0  0  0  0
    1.5718    4.7388    0.0948 H   0  0  0  0  0  0  0  0  0  0  0  0
    4.9836    1.5670   -0.2089 H   0  0  0  0  0  0  0  0  0  0  0  0
    5.3400   -2.8132   -0.5525 H   0  0  0  0  0  0  0  0  0  0  0  0
    6.7831    1.1125    0.5138 H   0  0  0  0  0  0  0  0  0  0  0  0
    9.0431    0.4269    0.0063 H   0  0  0  0  0  0  0  0  0  0  0  0
    6.9809   -4.5365   -1.2621 H   0  0  0  0  0  0  0  0  0  0  0  0
    9.3309   -5.1636   -1.7295 H   0  0  0  0  0  0  0  0  0  0  0  0
   11.1017   -3.4288   -1.4132 H   0  0  0  0  0  0  0  0  0  0  0  0
    5.2550    6.1757   -0.7787 H   0  0  0  0  0  0  0  0  0  0  0  0
    5.3977    5.1554   -2.2546 H   0  0  0  0  0  0  0  0  0  0  0  0
    4.2559    6.5183   -2.2096 H   0  0  0  0  0  0  0  0  0  0  0  0
  1 18  1  0  0  0  0
  1 27  1  0  0  0  0
  2 19  1  0  0  0  0
  2 28  1  0  0  0  0
  3 34  1  0  0  0  0
  3 44  1  0  0  0  0
  4 33  2  0  0  0  0
  5 34  2  0  0  0  0
  6  9  1  0  0  0  0
  6 10  1  0  0  0  0
  6 14  1  0  0  0  0
  7 30  1  0  0  0  0
  7 33  1  0  0  0  0
  7 68  1  0  0  0  0
  8 39  1  0  0  0  0
  8 43  2  0  0  0  0
  9 11  1  0  0  0  0
  9 45  1  0  0  0  0
  9 46  1  0  0  0  0
 10 12  1  0  0  0  0
 10 47  1  0  0  0  0
 10 48  1  0  0  0  0
 11 13  1  0  0  0  0
 11 49  1  0  0  0  0
 11 50  1  0  0  0  0
 12 13  1  0  0  0  0
 12 15  2  0  0  0  0
 13 16  2  0  0  0  0
 14 17  1  0  0  0  0
 14 51  1  0  0  0  0
 14 52  1  0  0  0  0
 15 18  1  0  0  0  0
 15 53  1  0  0  0  0
 16 19  1  0  0  0  0
 16 54  1  0  0  0  0
 17 20  2  0  0  0  0
 17 21  1  0  0  0  0
 18 19  2  0  0  0  0
 20 23  1  0  0  0  0
 20 55  1  0  0  0  0
 21 24  2  0  0  0  0
 21 56  1  0  0  0  0
 22 23  2  0  0  0  0
 22 24  1  0  0  0  0
 22 25  1  0  0  0  0
 23 57  1  0  0  0  0
 24 58  1  0  0  0  0
 25 26  2  0  0  0  0
 25 29  1  0  0  0  0
 26 30  1  0  0  0  0
 26 59  1  0  0  0  0
 27 60  1  0  0  0  0
 27 61  1  0  0  0  0
 27 62  1  0  0  0  0
 28 63  1  0  0  0  0
 28 64  1  0  0  0  0
 28 65  1  0  0  0  0
 29 32  2  0  0  0  0
 29 66  1  0  0  0  0
 30 31  2  0  0  0  0
 31 32  1  0  0  0  0
 31 34  1  0  0  0  0
 32 67  1  0  0  0  0
 33 35  1  0  0  0  0
 35 36  2  0  0  0  0
 35 38  1  0  0  0  0
 36 37  1  0  0  0  0
 36 69  1  0  0  0  0
 37 39  2  0  0  0  0
 37 41  1  0  0  0  0
 38 40  2  0  0  0  0
 38 70  1  0  0  0  0
 39 40  1  0  0  0  0
 40 71  1  0  0  0  0
 41 42  2  0  0  0  0
 41 72  1  0  0  0  0
 42 43  1  0  0  0  0
 42 73  1  0  0  0  0
 43 74  1  0  0  0  0
 44 75  1  0  0  0  0
 44 76  1  0  0  0  0
 44 77  1  0  0  0  0
M  END
> <PUBCHEM_COMPOUND_CID>
71624648

> <PUBCHEM_CONFORMER_RMSD>
1.2

> <PUBCHEM_CONFORMER_DIVERSEORDER>
17
70
41
48
40
74
73
69
43
30
8
50
77
67
25
72
65
6
68
38
45
58
61
66
64
21
76
71
1
15
55
18
47
26
39
29
22
5
20
54
34
13
46
10
63
52
31
16
33
60
11
27
59
7
57
49
62
19
24
14
56
28
23
9
53
42
35
75
12
3
2
51
4
37
36
32
44

> <PUBCHEM_MMFF94_PARTIAL_CHARGES>
57
1 -0.36
10 0.41
11 0.14
12 -0.14
13 -0.14
14 0.41
15 -0.15
16 -0.15
17 -0.14
18 0.08
19 0.08
2 -0.36
20 -0.15
21 -0.15
23 -0.15
24 -0.15
26 -0.15
27 0.28
28 0.28
29 -0.15
3 -0.43
30 0.12
31 0.09
32 -0.15
33 0.54
34 0.63
35 0.09
36 -0.15
38 -0.15
39 0.31
4 -0.57
40 -0.15
41 -0.15
42 -0.15
43 0.16
44 0.28
5 -0.57
53 0.15
54 0.15
55 0.15
56 0.15
57 0.15
58 0.15
59 0.15
6 -0.81
66 0.15
67 0.15
68 0.37
69 0.15
7 -0.55
70 0.15
71 0.15
72 0.15
73 0.15
74 0.15
8 -0.62
9 0.27

> <PUBCHEM_EFFECTIVE_ROTOR_COUNT>
10.8

> <PUBCHEM_PHARMACOPHORE_FEATURES>
13
1 1 acceptor
1 2 acceptor
1 4 acceptor
1 5 acceptor
1 6 cation
1 7 donor
1 8 acceptor
6 12 13 15 16 18 19 rings
6 17 20 21 22 23 24 rings
6 25 26 29 30 31 32 rings
6 35 36 37 38 39 40 rings
6 6 9 10 11 12 13 rings
6 8 37 39 41 42 43 rings

> <PUBCHEM_HEAVY_ATOM_COUNT>
44

> <PUBCHEM_ATOM_DEF_STEREO_COUNT>
0

> <PUBCHEM_ATOM_UDEF_STEREO_COUNT>
0

> <PUBCHEM_BOND_DEF_STEREO_COUNT>
0

> <PUBCHEM_BOND_UDEF_STEREO_COUNT>
0

> <PUBCHEM_ISOTOPIC_ATOM_COUNT>
0

> <PUBCHEM_COMPONENT_COUNT>
1

> <PUBCHEM_CACTVS_TAUTO_COUNT>
5

> <PUBCHEM_CONFORMER_ID>
0444E7C800000011

> <PUBCHEM_MMFF94_ENERGY>
171.0192

> <PUBCHEM_FEATURE_SELFOVERLAP>
66.033

> <PUBCHEM_SHAPE_FINGERPRINT>
10049733 35 18408891707250617724
11386260 185 18260266390870839948
11409948 41 18342175587923888900
11411753 3 17532950517042336257
11478447 62 18059571356552707190
11828042 163 18262518062542381581
12013929 112 17167859747119602379
12013929 27 18265336295243193399
12120059 9 18411131399847155122
12124843 1 17968387830843018330
13008946 119 8357961240487460060
13008946 170 18127412465897004656
13726171 33 11746946407727710200
13740195 50 9655284926504504827
14017579 151 17346326964508287910
14400156 413 18266177421248545768
14512766 119 17604418735327141359
15152005 77 17988368053660114454
15320295 40 18059855043267905987
15347590 135 11455893563952899503
16991971 28 18411710868181557818
19301676 85 18336276699462649058
212700 22 18342737416744127434
21781055 127 14635134751377123352
23729398 52 9078300811758670048
24204213 265 18342173367642243568
255183 451 18409459077174149712
3711267 37 12396300331229731527
3986486 107 17967532346371657195
4353968 344 18059013883003672209
4403749 210 10087649174630744193
44426701 170 18410286974743605549
44880568 143 17169268350838088409
4516262 110 18123194760899430400
474113 269 18272369754749775118
5874358 3 17418092126897007375
5937810 71 12613044910818497914
6201320 82 16734090243469141637

> <PUBCHEM_SHAPE_MULTIPOLES>
861.21
38.84
5.82
2.34
14.79
6.03
0.6
-35.17
30.28
-13.95
2.87
7.11
-0.6
2.63

> <PUBCHEM_SHAPE_SELFOVERLAP>
1904.702

> <PUBCHEM_SHAPE_VOLUME>
461.5

> <PUBCHEM_COORDINATE_TYPE>
2
5
10

$$$$