56649310
  -OEChem-03242010103D

 48 49  0     0  0  0  0  0  0999 V2000
    6.2170    1.1001   -0.2790 O   0  0  0  0  0  0  0  0  0  0  0  0
    3.9445    2.5769    0.2941 O   0  0  0  0  0  0  0  0  0  0  0  0
    6.0027   -1.6208   -0.7439 O   0  0  0  0  0  0  0  0  0  0  0  0
   -6.1799   -1.6654    0.5208 O   0  0  0  0  0  0  0  0  0  0  0  0
    1.1065   -2.6037    0.2610 O   0  0  0  0  0  0  0  0  0  0  0  0
    2.5064   -0.7585   -0.1167 C   0  0  0  0  0  0  0  0  0  0  0  0
    4.9986    0.4905   -0.2260 C   0  0  0  0  0  0  0  0  0  0  0  0
    3.8565    1.2370    0.0631 C   0  0  0  0  0  0  0  0  0  0  0  0
    4.8947   -0.8806   -0.4606 C   0  0  0  0  0  0  0  0  0  0  0  0
    2.6104    0.6127    0.1178 C   0  0  0  0  0  0  0  0  0  0  0  0
    3.6486   -1.5051   -0.4059 C   0  0  0  0  0  0  0  0  0  0  0  0
    1.1813   -1.4218   -0.0571 C   0  0  0  0  0  0  0  0  0  0  0  0
   -4.8529    0.2857    0.0657 C   0  0  0  0  0  0  0  0  0  0  0  0
   -0.0142   -0.6147   -0.4254 C   0  0  0  0  0  0  0  0  0  0  0  0
   -6.0891   -0.3531    0.1614 C   0  0  0  0  0  0  0  0  0  0  0  0
   -3.6147   -0.4276    0.3480 C   0  0  0  0  0  0  0  0  0  0  0  0
   -4.7886    1.6288   -0.3052 C   0  0  0  0  0  0  0  0  0  0  0  0
   -1.2043   -0.8946    0.1245 C   0  0  0  0  0  0  0  0  0  0  0  0
   -2.4078   -0.1569   -0.1983 C   0  0  0  0  0  0  0  0  0  0  0  0
   -7.2612    0.3513   -0.1138 C   0  0  0  0  0  0  0  0  0  0  0  0
   -5.9608    2.3332   -0.5805 C   0  0  0  0  0  0  0  0  0  0  0  0
   -7.1971    1.6944   -0.4848 C   0  0  0  0  0  0  0  0  0  0  0  0
    6.6661    1.7519    0.9069 C   0  0  0  0  0  0  0  0  0  0  0  0
    2.7293    3.2655    0.5827 C   0  0  0  0  0  0  0  0  0  0  0  0
    6.6964   -2.1976    0.3609 C   0  0  0  0  0  0  0  0  0  0  0  0
   -7.4883   -2.2276    0.5903 C   0  0  0  0  0  0  0  0  0  0  0  0
    1.7053    1.1536    0.3667 H   0  0  0  0  0  0  0  0  0  0  0  0
    3.5791   -2.5737   -0.5951 H   0  0  0  0  0  0  0  0  0  0  0  0
    0.1125    0.2071   -1.1227 H   0  0  0  0  0  0  0  0  0  0  0  0
   -3.6927   -1.2454    1.0621 H   0  0  0  0  0  0  0  0  0  0  0  0
   -3.8479    2.1687   -0.3715 H   0  0  0  0  0  0  0  0  0  0  0  0
   -1.3018   -1.7100    0.8369 H   0  0  0  0  0  0  0  0  0  0  0  0
   -2.2970    0.6382   -0.9311 H   0  0  0  0  0  0  0  0  0  0  0  0
   -8.2570   -0.0746   -0.0614 H   0  0  0  0  0  0  0  0  0  0  0  0
   -5.9117    3.3803   -0.8648 H   0  0  0  0  0  0  0  0  0  0  0  0
   -8.1092    2.2443   -0.6983 H   0  0  0  0  0  0  0  0  0  0  0  0
    7.7544    1.6513    0.9545 H   0  0  0  0  0  0  0  0  0  0  0  0
    6.2423    1.3028    1.8121 H   0  0  0  0  0  0  0  0  0  0  0  0
    6.4267    2.8180    0.8624 H   0  0  0  0  0  0  0  0  0  0  0  0
    2.9856    4.3197    0.7315 H   0  0  0  0  0  0  0  0  0  0  0  0
    2.2785    2.9153    1.5176 H   0  0  0  0  0  0  0  0  0  0  0  0
    2.0311    3.2263   -0.2606 H   0  0  0  0  0  0  0  0  0  0  0  0
    7.5575   -2.7493   -0.0258 H   0  0  0  0  0  0  0  0  0  0  0  0
    6.0468   -2.8951    0.8991 H   0  0  0  0  0  0  0  0  0  0  0  0
    7.0565   -1.4192    1.0407 H   0  0  0  0  0  0  0  0  0  0  0  0
   -8.0964   -1.7441    1.3626 H   0  0  0  0  0  0  0  0  0  0  0  0
   -7.9796   -2.2325   -0.3887 H   0  0  0  0  0  0  0  0  0  0  0  0
   -7.3722   -3.2745    0.8901 H   0  0  0  0  0  0  0  0  0  0  0  0
  1  7  1  0  0  0  0
  1 23  1  0  0  0  0
  2  8  1  0  0  0  0
  2 24  1  0  0  0  0
  3  9  1  0  0  0  0
  3 25  1  0  0  0  0
  4 15  1  0  0  0  0
  4 26  1  0  0  0  0
  5 12  2  0  0  0  0
  6 10  2  0  0  0  0
  6 11  1  0  0  0  0
  6 12  1  0  0  0  0
  7  8  2  0  0  0  0
  7  9  1  0  0  0  0
  8 10  1  0  0  0  0
  9 11  2  0  0  0  0
 10 27  1  0  0  0  0
 11 28  1  0  0  0  0
 12 14  1  0  0  0  0
 13 15  1  0  0  0  0
 13 16  1  0  0  0  0
 13 17  2  0  0  0  0
 14 18  2  0  0  0  0
 14 29  1  0  0  0  0
 15 20  2  0  0  0  0
 16 19  2  0  0  0  0
 16 30  1  0  0  0  0
 17 21  1  0  0  0  0
 17 31  1  0  0  0  0
 18 19  1  0  0  0  0
 18 32  1  0  0  0  0
 19 33  1  0  0  0  0
 20 22  1  0  0  0  0
 20 34  1  0  0  0  0
 21 22  2  0  0  0  0
 21 35  1  0  0  0  0
 22 36  1  0  0  0  0
 23 37  1  0  0  0  0
 23 38  1  0  0  0  0
 23 39  1  0  0  0  0
 24 40  1  0  0  0  0
 24 41  1  0  0  0  0
 24 42  1  0  0  0  0
 25 43  1  0  0  0  0
 25 44  1  0  0  0  0
 25 45  1  0  0  0  0
 26 46  1  0  0  0  0
 26 47  1  0  0  0  0
 26 48  1  0  0  0  0
M  END
> <PUBCHEM_COMPOUND_CID>
56649310

> <PUBCHEM_CONFORMER_RMSD>
0.8

> <PUBCHEM_CONFORMER_DIVERSEORDER>
17
49
16
77
37
103
60
78
91
61
6
44
106
26
72
71
32
99
92
40
53
42
9
80
20
63
2
45
41
84
104
66
5
48
25
19
76
59
1
15
46
8
51
13
39
23
58
14
107
18
31
79
73
3
10
33
75
105
64
94
35
30
67
52
4
11
93
38
55
85
90
97
82
57
81
101
24
98
12
100
83
7
87
22
62
47
89
74
70
28
50
102
95
43
69
65
88
27
68
36
96
34
29
56
54
86
21

> <PUBCHEM_MMFF94_PARTIAL_CHARGES>
36
1 -0.36
10 -0.15
11 -0.15
12 0.47
13 0.03
14 -0.14
15 0.08
16 -0.18
17 -0.15
18 -0.15
19 -0.15
2 -0.36
20 -0.15
21 -0.15
22 -0.15
23 0.28
24 0.28
25 0.28
26 0.28
27 0.15
28 0.15
29 0.15
3 -0.36
30 0.15
31 0.15
32 0.15
33 0.15
34 0.15
35 0.15
36 0.15
4 -0.36
5 -0.57
6 0.09
7 0.08
8 0.08
9 0.08

> <PUBCHEM_EFFECTIVE_ROTOR_COUNT>
8

> <PUBCHEM_PHARMACOPHORE_FEATURES>
7
1 1 acceptor
1 2 acceptor
1 3 acceptor
1 4 acceptor
1 5 acceptor
6 13 15 17 20 21 22 rings
6 6 7 8 9 10 11 rings

> <PUBCHEM_HEAVY_ATOM_COUNT>
26

> <PUBCHEM_ATOM_DEF_STEREO_COUNT>
0

> <PUBCHEM_ATOM_UDEF_STEREO_COUNT>
0

> <PUBCHEM_BOND_DEF_STEREO_COUNT>
2

> <PUBCHEM_BOND_UDEF_STEREO_COUNT>
0

> <PUBCHEM_ISOTOPIC_ATOM_COUNT>
0

> <PUBCHEM_COMPONENT_COUNT>
1

> <PUBCHEM_CACTVS_TAUTO_COUNT>
1

> <PUBCHEM_CONFORMER_ID>
0360665E00000011

> <PUBCHEM_MMFF94_ENERGY>
116.3139

> <PUBCHEM_FEATURE_SELFOVERLAP>
35.533

> <PUBCHEM_SHAPE_FINGERPRINT>
10411042 1 17908144275299447630
10763959 59 18335423473663881308
10835480 77 18410007703358722509
11315181 36 18131633379824607449
11719270 70 18272929380430788150
12166972 35 18335426785210286541
13167372 99 18342459201235422984
13402501 40 18407758127410058557
14170010 4 18342457063064285656
14461889 52 18334295413325283267
14556957 393 17060627672745657393
14933364 13 18410294709736072813
15183329 4 15697999639276320725
15419008 145 18189603965830698016
1577012 14 18060412547392914582
17844677 252 18412270532315828521
18335252 114 18341604884937599388
19611394 137 18042980942308526115
20157964 124 18273498974956390518
20281389 69 18410012130414696801
21033648 29 18335133241607284000
21130935 74 18333449815832318451
21315763 129 18410294696751126021
21315763 28 18410573985790137959
21792934 111 18341883053865379208
221357 26 18341051826763436860
23559900 14 18411415073757151139
249057 3 18059856156145029374
335352 9 18411985737609428094
34797466 226 18130794439108861295
4073 2 17967822664660020747
5104073 3 18114184082588389203

> <PUBCHEM_SHAPE_MULTIPOLES>
505.72
24.23
2.97
0.76
19.41
1.03
-0.02
1.14
-0.73
-1.41
-0.4
-0.12
0.04
2.09

> <PUBCHEM_SHAPE_SELFOVERLAP>
1067.338

> <PUBCHEM_SHAPE_VOLUME>
284.4

> <PUBCHEM_COORDINATE_TYPE>
2
5
10

$$$$