72950792
  -OEChem-03242010103D

 45 48  0     0  0  0  0  0  0999 V2000
    0.7596   -0.3598   -0.0130 O   0  0  0  0  0  0  0  0  0  0  0  0
   -1.1095    2.8073   -0.2259 O   0  0  0  0  0  0  0  0  0  0  0  0
    1.5431    3.6294   -0.1331 O   0  0  0  0  0  0  0  0  0  0  0  0
   -4.7003   -0.0172    1.8230 O   0  0  0  0  0  0  0  0  0  0  0  0
   -5.3675   -1.7818   -0.2188 O   0  0  0  0  0  0  0  0  0  0  0  0
    2.0651    0.0730    0.0254 C   0  0  0  0  0  0  0  0  0  0  0  0
    3.0804   -0.9086    0.1020 C   0  0  0  0  0  0  0  0  0  0  0  0
    2.3885    1.4300   -0.0104 C   0  0  0  0  0  0  0  0  0  0  0  0
    4.4323   -0.4863    0.1425 C   0  0  0  0  0  0  0  0  0  0  0  0
   -0.2604    0.5735   -0.0779 C   0  0  0  0  0  0  0  0  0  0  0  0
    1.3103    2.4284   -0.0935 C   0  0  0  0  0  0  0  0  0  0  0  0
   -0.0739    1.9038   -0.1277 C   0  0  0  0  0  0  0  0  0  0  0  0
    3.7200    1.8392    0.0297 C   0  0  0  0  0  0  0  0  0  0  0  0
   -1.5992   -0.0418   -0.1125 C   0  0  0  0  0  0  0  0  0  0  0  0
    4.7331    0.8843    0.1058 C   0  0  0  0  0  0  0  0  0  0  0  0
    2.8113   -2.2938    0.1403 C   0  0  0  0  0  0  0  0  0  0  0  0
    5.4585   -1.4425    0.2188 C   0  0  0  0  0  0  0  0  0  0  0  0
   -2.5312    0.2611    0.8802 C   0  0  0  0  0  0  0  0  0  0  0  0
   -1.9342   -0.9271   -1.1369 C   0  0  0  0  0  0  0  0  0  0  0  0
    3.8433   -3.2302    0.2162 C   0  0  0  0  0  0  0  0  0  0  0  0
    5.1655   -2.8049    0.2553 C   0  0  0  0  0  0  0  0  0  0  0  0
   -3.7984   -0.3210    0.8482 C   0  0  0  0  0  0  0  0  0  0  0  0
   -4.1334   -1.2064   -0.1763 C   0  0  0  0  0  0  0  0  0  0  0  0
   -3.2013   -1.5095   -1.1687 C   0  0  0  0  0  0  0  0  0  0  0  0
   -1.4152    3.0779   -1.5807 C   0  0  0  0  0  0  0  0  0  0  0  0
   -5.5574    1.0982    1.5876 C   0  0  0  0  0  0  0  0  0  0  0  0
   -5.6290   -2.6752   -1.2996 C   0  0  0  0  0  0  0  0  0  0  0  0
    3.9901    2.8911    0.0026 H   0  0  0  0  0  0  0  0  0  0  0  0
    5.7668    1.2235    0.1361 H   0  0  0  0  0  0  0  0  0  0  0  0
    1.7878   -2.6622    0.1112 H   0  0  0  0  0  0  0  0  0  0  0  0
    6.5012   -1.1325    0.2506 H   0  0  0  0  0  0  0  0  0  0  0  0
   -2.2800    0.9434    1.6895 H   0  0  0  0  0  0  0  0  0  0  0  0
   -1.2196   -1.1711   -1.9195 H   0  0  0  0  0  0  0  0  0  0  0  0
    3.6120   -4.2910    0.2444 H   0  0  0  0  0  0  0  0  0  0  0  0
    5.9699   -3.5321    0.3144 H   0  0  0  0  0  0  0  0  0  0  0  0
   -3.3915   -2.1867   -1.9942 H   0  0  0  0  0  0  0  0  0  0  0  0
   -2.2332    3.8043   -1.6051 H   0  0  0  0  0  0  0  0  0  0  0  0
   -1.7504    2.1791   -2.1089 H   0  0  0  0  0  0  0  0  0  0  0  0
   -0.5587    3.5197   -2.1019 H   0  0  0  0  0  0  0  0  0  0  0  0
   -6.2198    1.2095    2.4504 H   0  0  0  0  0  0  0  0  0  0  0  0
   -6.1695    0.9324    0.6954 H   0  0  0  0  0  0  0  0  0  0  0  0
   -4.9707    2.0155    1.4757 H   0  0  0  0  0  0  0  0  0  0  0  0
   -4.9743   -3.5527   -1.2653 H   0  0  0  0  0  0  0  0  0  0  0  0
   -5.5885   -2.1619   -2.2663 H   0  0  0  0  0  0  0  0  0  0  0  0
   -6.6544   -3.0389   -1.1758 H   0  0  0  0  0  0  0  0  0  0  0  0
  1  6  1  0  0  0  0
  1 10  1  0  0  0  0
  2 12  1  0  0  0  0
  2 25  1  0  0  0  0
  3 11  2  0  0  0  0
  4 22  1  0  0  0  0
  4 26  1  0  0  0  0
  5 23  1  0  0  0  0
  5 27  1  0  0  0  0
  6  7  1  0  0  0  0
  6  8  2  0  0  0  0
  7  9  1  0  0  0  0
  7 16  2  0  0  0  0
  8 11  1  0  0  0  0
  8 13  1  0  0  0  0
  9 15  1  0  0  0  0
  9 17  2  0  0  0  0
 10 12  2  0  0  0  0
 10 14  1  0  0  0  0
 11 12  1  0  0  0  0
 13 15  2  0  0  0  0
 13 28  1  0  0  0  0
 14 18  2  0  0  0  0
 14 19  1  0  0  0  0
 15 29  1  0  0  0  0
 16 20  1  0  0  0  0
 16 30  1  0  0  0  0
 17 21  1  0  0  0  0
 17 31  1  0  0  0  0
 18 22  1  0  0  0  0
 18 32  1  0  0  0  0
 19 24  2  0  0  0  0
 19 33  1  0  0  0  0
 20 21  2  0  0  0  0
 20 34  1  0  0  0  0
 21 35  1  0  0  0  0
 22 23  2  0  0  0  0
 23 24  1  0  0  0  0
 24 36  1  0  0  0  0
 25 37  1  0  0  0  0
 25 38  1  0  0  0  0
 25 39  1  0  0  0  0
 26 40  1  0  0  0  0
 26 41  1  0  0  0  0
 26 42  1  0  0  0  0
 27 43  1  0  0  0  0
 27 44  1  0  0  0  0
 27 45  1  0  0  0  0
M  END
> <PUBCHEM_COMPOUND_CID>
72950792

> <PUBCHEM_CONFORMER_RMSD>
0.8

> <PUBCHEM_CONFORMER_DIVERSEORDER>
1
6
7
3
5
2
4

> <PUBCHEM_MMFF94_PARTIAL_CHARGES>
34
1 -0.16
10 0.05
11 0.47
12 0.09
13 -0.15
14 0.03
15 -0.15
16 -0.15
17 -0.15
18 -0.15
19 -0.15
2 -0.36
20 -0.15
21 -0.15
22 0.08
23 0.08
24 -0.15
25 0.28
26 0.28
27 0.28
28 0.15
29 0.15
3 -0.57
30 0.15
31 0.15
32 0.15
33 0.15
34 0.15
35 0.15
36 0.15
4 -0.36
5 -0.36
6 0.08
8 0.09

> <PUBCHEM_EFFECTIVE_ROTOR_COUNT>
4

> <PUBCHEM_PHARMACOPHORE_FEATURES>
9
1 1 acceptor
1 2 acceptor
1 3 acceptor
1 4 acceptor
1 5 acceptor
6 1 6 8 10 11 12 rings
6 14 18 19 22 23 24 rings
6 6 7 8 9 13 15 rings
6 7 9 16 17 20 21 rings

> <PUBCHEM_HEAVY_ATOM_COUNT>
27

> <PUBCHEM_ATOM_DEF_STEREO_COUNT>
0

> <PUBCHEM_ATOM_UDEF_STEREO_COUNT>
0

> <PUBCHEM_BOND_DEF_STEREO_COUNT>
0

> <PUBCHEM_BOND_UDEF_STEREO_COUNT>
0

> <PUBCHEM_ISOTOPIC_ATOM_COUNT>
0

> <PUBCHEM_COMPONENT_COUNT>
1

> <PUBCHEM_CACTVS_TAUTO_COUNT>
1

> <PUBCHEM_CONFORMER_ID>
0459240800000001

> <PUBCHEM_MMFF94_ENERGY>
111.254

> <PUBCHEM_FEATURE_SELFOVERLAP>
45.735

> <PUBCHEM_SHAPE_FINGERPRINT>
10411042 1 18338230475911158094
10622 236 17914876842182493239
11135609 12 18188490169020161608
11578080 2 17845064381725758905
11991303 11 17316194727984916973
12107183 9 18198914621635549313
12236239 1 18059296569103072763
12422481 6 18129389206759958031
12553582 1 18410288095470898470
12596602 18 17489591190339176058
12633257 1 17917996035814426067
13140716 1 17979069715456320864
13533116 47 18198621223793038947
13540713 4 18266156389220256836
13544653 18 18333452032134883614
1361 2 18411134783422151362
13690498 29 18120668933318043246
13782708 43 17240482524420015403
13911852 28 18410290285434935414
14739800 52 17058644286264321736
14767858 380 18261408749941031270
14784336 7 17771054188739561723
14790565 3 17832435559047634428
15042514 8 18049445842440095464
15250474 111 18201153368748969719
15361156 5 18187660058730282268
15475509 84 17987808388797466704
15537594 2 18339935856762758990
17492 89 18266171735175361118
17818456 19 17916600743091030737
1813 80 18338248106113338940
19319366 153 17478611669298884869
20028762 73 18272082795290693310
20511986 3 18060128860492066017
20554085 129 15913054141330407859
20645477 70 18188479306456590942
20775530 9 18187646834942800038
21065198 48 18201722881369636379
21267235 1 18337681798287061682
21478907 32 18409724028409261940
221490 88 18336263428218327524
22950370 63 18411421696011431742
23522609 53 18124346928224751800
23559900 14 18337101371309645513
314194 84 18409174337062029570
3421961 26 18339356465531928224
34797466 226 16009037236478111535
350125 39 18338240362751754664
3633792 109 18337940278140849247
3737641 26 18410016511772053190
3882209 13 17107582140115531883
46194498 28 17459741708507490943
463206 1 18408888464324021082
5028188 123 17988935466299800972
5104073 3 18130793386362112083
513202 73 18115029589491660961
56633871 153 18199191685385947459
70251023 43 18335131012144477051
7970288 3 18410005503603107802

> <PUBCHEM_SHAPE_MULTIPOLES>
526.3
12.9
3.83
1.13
4.8
0.91
-0.07
-9.69
-2.22
-1.72
0.97
1.96
0.1
-1.51

> <PUBCHEM_SHAPE_SELFOVERLAP>
1173.262

> <PUBCHEM_SHAPE_VOLUME>
281.4

> <PUBCHEM_COORDINATE_TYPE>
2
5
10

$$$$