85998614
  -OEChem-03242010103D

 42 43  0     0  0  0  0  0  0999 V2000
    0.0802    2.4134   -0.3760 O   0  0  0  0  0  0  0  0  0  0  0  0
   -1.3351   -2.0900   -1.2159 O   0  0  0  0  0  0  0  0  0  0  0  0
    3.2735   -1.2261   -0.4412 O   0  0  0  0  0  0  0  0  0  0  0  0
    0.7807    4.5566    0.0269 O   0  0  0  0  0  0  0  0  0  0  0  0
   -1.6275   -2.3918    1.0868 O   0  0  0  0  0  0  0  0  0  0  0  0
    2.9116   -1.5346    1.8509 O   0  0  0  0  0  0  0  0  0  0  0  0
   -0.6357    0.1632   -0.7964 C   0  0  0  0  0  0  0  0  0  0  0  0
    0.4043    1.0494   -0.5235 C   0  0  0  0  0  0  0  0  0  0  0  0
   -2.0404    0.6532   -0.9264 C   0  0  0  0  0  0  0  0  0  0  0  0
    1.7218    0.6165   -0.3983 C   0  0  0  0  0  0  0  0  0  0  0  0
   -0.3464   -1.1911   -0.9480 C   0  0  0  0  0  0  0  0  0  0  0  0
    2.0030   -0.7429   -0.5514 C   0  0  0  0  0  0  0  0  0  0  0  0
    0.9696   -1.6435   -0.8257 C   0  0  0  0  0  0  0  0  0  0  0  0
   -2.6699    0.9884    0.4029 C   0  0  0  0  0  0  0  0  0  0  0  0
    2.7569    1.5955   -0.1134 C   0  0  0  0  0  0  0  0  0  0  0  0
   -3.9653    0.8872    0.7573 C   0  0  0  0  0  0  0  0  0  0  0  0
    2.4419    2.8858    0.0245 C   0  0  0  0  0  0  0  0  0  0  0  0
    1.0542    3.3685   -0.1032 C   0  0  0  0  0  0  0  0  0  0  0  0
   -4.9894    0.3974   -0.2321 C   0  0  0  0  0  0  0  0  0  0  0  0
   -4.5263    1.2402    2.1054 C   0  0  0  0  0  0  0  0  0  0  0  0
   -1.9285   -2.6462   -0.0718 C   0  0  0  0  0  0  0  0  0  0  0  0
    3.6286   -1.6080    0.8619 C   0  0  0  0  0  0  0  0  0  0  0  0
   -2.9990   -3.6181   -0.4710 C   0  0  0  0  0  0  0  0  0  0  0  0
    5.0372   -2.1230    0.8776 C   0  0  0  0  0  0  0  0  0  0  0  0
   -2.0411    1.5587   -1.5476 H   0  0  0  0  0  0  0  0  0  0  0  0
   -2.6402   -0.0713   -1.4850 H   0  0  0  0  0  0  0  0  0  0  0  0
    1.1910   -2.7015   -0.9463 H   0  0  0  0  0  0  0  0  0  0  0  0
   -1.9925    1.3736    1.1648 H   0  0  0  0  0  0  0  0  0  0  0  0
    3.7884    1.2766   -0.0167 H   0  0  0  0  0  0  0  0  0  0  0  0
    3.2091    3.6227    0.2357 H   0  0  0  0  0  0  0  0  0  0  0  0
   -5.2691   -0.6357   -0.0015 H   0  0  0  0  0  0  0  0  0  0  0  0
   -4.6634    0.4445   -1.2736 H   0  0  0  0  0  0  0  0  0  0  0  0
   -5.8929    1.0150   -0.1722 H   0  0  0  0  0  0  0  0  0  0  0  0
   -3.7422    1.5729    2.7935 H   0  0  0  0  0  0  0  0  0  0  0  0
   -5.0167    0.3700    2.5533 H   0  0  0  0  0  0  0  0  0  0  0  0
   -5.2584    2.0491    2.0163 H   0  0  0  0  0  0  0  0  0  0  0  0
   -3.7695   -3.1003   -1.0476 H   0  0  0  0  0  0  0  0  0  0  0  0
   -3.4592   -4.0399    0.4269 H   0  0  0  0  0  0  0  0  0  0  0  0
   -2.5606   -4.4309   -1.0550 H   0  0  0  0  0  0  0  0  0  0  0  0
    5.1202   -2.9912    0.2191 H   0  0  0  0  0  0  0  0  0  0  0  0
    5.3003   -2.4293    1.8940 H   0  0  0  0  0  0  0  0  0  0  0  0
    5.7222   -1.3325    0.5617 H   0  0  0  0  0  0  0  0  0  0  0  0
  1  8  1  0  0  0  0
  1 18  1  0  0  0  0
  2 11  1  0  0  0  0
  2 21  1  0  0  0  0
  3 12  1  0  0  0  0
  3 22  1  0  0  0  0
  4 18  2  0  0  0  0
  5 21  2  0  0  0  0
  6 22  2  0  0  0  0
  7  8  1  0  0  0  0
  7  9  1  0  0  0  0
  7 11  2  0  0  0  0
  8 10  2  0  0  0  0
  9 14  1  0  0  0  0
  9 25  1  0  0  0  0
  9 26  1  0  0  0  0
 10 12  1  0  0  0  0
 10 15  1  0  0  0  0
 11 13  1  0  0  0  0
 12 13  2  0  0  0  0
 13 27  1  0  0  0  0
 14 16  2  0  0  0  0
 14 28  1  0  0  0  0
 15 17  2  0  0  0  0
 15 29  1  0  0  0  0
 16 19  1  0  0  0  0
 16 20  1  0  0  0  0
 17 18  1  0  0  0  0
 17 30  1  0  0  0  0
 19 31  1  0  0  0  0
 19 32  1  0  0  0  0
 19 33  1  0  0  0  0
 20 34  1  0  0  0  0
 20 35  1  0  0  0  0
 20 36  1  0  0  0  0
 21 23  1  0  0  0  0
 22 24  1  0  0  0  0
 23 37  1  0  0  0  0
 23 38  1  0  0  0  0
 23 39  1  0  0  0  0
 24 40  1  0  0  0  0
 24 41  1  0  0  0  0
 24 42  1  0  0  0  0
M  END
> <PUBCHEM_COMPOUND_CID>
85998614

> <PUBCHEM_CONFORMER_RMSD>
0.8

> <PUBCHEM_CONFORMER_DIVERSEORDER>
1
126
89
17
111
94
83
31
93
131
15
79
56
119
48
29
104
66
75
96
61
125
58
101
107
53
4
10
103
134
76
9
109
129
110
27
13
136
62
22
102
90
115
63
70
122
108
69
16
87
100
45
6
120
65
98
12
121
60
40
123
59
47
19
86
116
135
114
34
73
44
64
95
51
99
81
41
132
36
23
8
138
33
112
82
57
128
92
88
124
55
50
68
71
21
117
78
97
137
85
130
84
52
72
26
38
139
106
113
80
105
37
67
11
54
74
24
118
5
18
42
2
20
77
28
7
35
43
127
91
3
32
133
25
46
30
39
14
49

> <PUBCHEM_MMFF94_PARTIAL_CHARGES>
28
1 -0.23
10 0.03
11 0.08
12 0.08
13 -0.15
14 -0.29
15 -0.18
16 -0.28
17 -0.14
18 0.71
19 0.14
2 -0.23
20 0.14
21 0.66
22 0.66
23 0.06
24 0.06
27 0.15
28 0.15
29 0.15
3 -0.23
30 0.15
4 -0.57
5 -0.57
6 -0.57
7 -0.14
8 0.08
9 0.28

> <PUBCHEM_EFFECTIVE_ROTOR_COUNT>
6

> <PUBCHEM_PHARMACOPHORE_FEATURES>
6
1 4 acceptor
1 5 acceptor
1 6 acceptor
3 16 19 20 hydrophobe
6 1 8 10 15 17 18 rings
6 7 8 10 11 12 13 rings

> <PUBCHEM_HEAVY_ATOM_COUNT>
24

> <PUBCHEM_ATOM_DEF_STEREO_COUNT>
0

> <PUBCHEM_ATOM_UDEF_STEREO_COUNT>
0

> <PUBCHEM_BOND_DEF_STEREO_COUNT>
0

> <PUBCHEM_BOND_UDEF_STEREO_COUNT>
0

> <PUBCHEM_ISOTOPIC_ATOM_COUNT>
0

> <PUBCHEM_COMPONENT_COUNT>
1

> <PUBCHEM_CACTVS_TAUTO_COUNT>
1

> <PUBCHEM_CONFORMER_ID>
05203C1600000001

> <PUBCHEM_MMFF94_ENERGY>
72.6907

> <PUBCHEM_FEATURE_SELFOVERLAP>
30.475

> <PUBCHEM_SHAPE_FINGERPRINT>
10006869 2 17985273117379533271
1100329 8 18409727352761408683
11578080 2 17201912859134473171
11796584 16 16733554788762062251
12390115 104 17765734785285697740
12403260 363 18413386523812513453
12507560 14 18338516339795611189
12553582 1 18338792304629981262
12633257 1 18338525153279473387
12644460 14 18408047312153498928
12788726 201 18118411648746425562
13140716 1 18412257350792360190
13583140 156 18042133201257167139
14022347 108 18195546808713751230
14178342 30 18125148587964849768
14223421 5 18047748483895859175
14787075 74 17895200939631545858
14790565 3 18196955291789102644
16728300 4 17318156226342175867
16945 1 18267858389837293230
17349148 13 18201712960237782455
17980427 23 17846483855410274109
19319366 153 17968109607525646578
20028762 73 18273210890263096863
20510252 161 17910099219398481800
20600515 1 18272654506817973228
20739085 24 18267606627096884241
21421861 104 18120653801589089899
21501502 16 18338797939178830023
2334 1 18267014132489968078
23558518 356 17905337573266325357
23559900 14 18272938257874182495
25147074 1 18340762753757250566
2748010 2 18341603876115825908
350125 39 17764031658816719109
4409770 3 17899962846949787620
474 4 18129395821542363537
5104073 3 18411991282179579267
7097593 13 18336545022673452688

> <PUBCHEM_SHAPE_MULTIPOLES>
458.69
7.96
4.56
1.28
2.36
1.91
-0.55
-2.31
-3.72
-0.91
0.03
0.48
-0.32
-1.68

> <PUBCHEM_SHAPE_SELFOVERLAP>
970.912

> <PUBCHEM_SHAPE_VOLUME>
255.9

> <PUBCHEM_COORDINATE_TYPE>
2
5
10

$$$$