134130525
  -OEChem-03242010103D

 53 56  0     0  0  0  0  0  0999 V2000
    3.7122    0.3146   -1.4531 O   0  0  0  0  0  0  0  0  0  0  0  0
    5.5912   -1.4510   -0.4155 O   0  0  0  0  0  0  0  0  0  0  0  0
   -3.6615    2.5817   -0.2654 O   0  0  0  0  0  0  0  0  0  0  0  0
    2.1409    4.8970    0.5660 O   0  0  0  0  0  0  0  0  0  0  0  0
    0.1811   -2.4030    0.3136 N   0  0  0  0  0  0  0  0  0  0  0  0
   -2.4809    0.5646   -0.0151 N   0  0  0  0  0  0  0  0  0  0  0  0
   -0.7605   -1.5797   -0.1685 N   0  0  0  0  0  0  0  0  0  0  0  0
   -1.5834   -3.3646    0.9560 N   0  0  0  0  0  0  0  0  0  0  0  0
   -0.2609   -3.4741    0.9873 N   0  0  0  0  0  0  0  0  0  0  0  0
   -3.1919   -1.7653    0.0146 C   0  0  0  0  0  0  0  0  0  0  0  0
   -3.4820   -0.4072   -0.1157 C   0  0  0  0  0  0  0  0  0  0  0  0
   -1.8494   -2.2238    0.2589 C   0  0  0  0  0  0  0  0  0  0  0  0
    1.5368   -2.1612    0.1278 C   0  0  0  0  0  0  0  0  0  0  0  0
   -4.2128   -2.7098   -0.0918 C   0  0  0  0  0  0  0  0  0  0  0  0
   -4.7929    0.0064   -0.3522 C   0  0  0  0  0  0  0  0  0  0  0  0
    1.9549   -1.0331   -0.5780 C   0  0  0  0  0  0  0  0  0  0  0  0
    2.4799   -3.0473    0.6486 C   0  0  0  0  0  0  0  0  0  0  0  0
    3.3160   -0.7911   -0.7631 C   0  0  0  0  0  0  0  0  0  0  0  0
   -1.3660    2.7303    0.0814 C   0  0  0  0  0  0  0  0  0  0  0  0
   -2.6220    1.9545   -0.0929 C   0  0  0  0  0  0  0  0  0  0  0  0
   -5.5238   -2.2961   -0.3283 C   0  0  0  0  0  0  0  0  0  0  0  0
    4.2591   -1.6771   -0.2423 C   0  0  0  0  0  0  0  0  0  0  0  0
   -5.8139   -0.9381   -0.4585 C   0  0  0  0  0  0  0  0  0  0  0  0
    3.8410   -2.8053    0.4636 C   0  0  0  0  0  0  0  0  0  0  0  0
   -0.3155    2.1989    0.8295 C   0  0  0  0  0  0  0  0  0  0  0  0
   -1.2381    3.9900   -0.5040 C   0  0  0  0  0  0  0  0  0  0  0  0
    0.9908    4.1867    0.4070 C   0  0  0  0  0  0  0  0  0  0  0  0
    0.8628    2.9271    0.9923 C   0  0  0  0  0  0  0  0  0  0  0  0
   -0.0596    4.7183   -0.3411 C   0  0  0  0  0  0  0  0  0  0  0  0
    2.6851    1.1692   -1.9525 C   0  0  0  0  0  0  0  0  0  0  0  0
    6.4891   -2.4052    0.1483 C   0  0  0  0  0  0  0  0  0  0  0  0
    3.1743    4.2935    1.3432 C   0  0  0  0  0  0  0  0  0  0  0  0
   -4.0135   -3.7749    0.0001 H   0  0  0  0  0  0  0  0  0  0  0  0
   -1.5427    0.1997    0.1019 H   0  0  0  0  0  0  0  0  0  0  0  0
   -5.1083    1.0319   -0.4731 H   0  0  0  0  0  0  0  0  0  0  0  0
    1.1970   -0.3649   -0.9703 H   0  0  0  0  0  0  0  0  0  0  0  0
    2.1934   -3.9367    1.2041 H   0  0  0  0  0  0  0  0  0  0  0  0
   -6.3186   -3.0314   -0.4128 H   0  0  0  0  0  0  0  0  0  0  0  0
   -6.8351   -0.6178   -0.6446 H   0  0  0  0  0  0  0  0  0  0  0  0
    4.5164   -3.5356    0.8958 H   0  0  0  0  0  0  0  0  0  0  0  0
   -0.3839    1.2407    1.3356 H   0  0  0  0  0  0  0  0  0  0  0  0
   -2.0427    4.4194   -1.0951 H   0  0  0  0  0  0  0  0  0  0  0  0
    1.6361    2.4583    1.5914 H   0  0  0  0  0  0  0  0  0  0  0  0
    0.0350    5.6984   -0.8004 H   0  0  0  0  0  0  0  0  0  0  0  0
    3.1799    2.0003   -2.4659 H   0  0  0  0  0  0  0  0  0  0  0  0
    2.0949    1.6052   -1.1446 H   0  0  0  0  0  0  0  0  0  0  0  0
    2.0641    0.6612   -2.6981 H   0  0  0  0  0  0  0  0  0  0  0  0
    7.5047   -2.0689   -0.0851 H   0  0  0  0  0  0  0  0  0  0  0  0
    6.3683   -3.3928   -0.3096 H   0  0  0  0  0  0  0  0  0  0  0  0
    6.4087   -2.4389    1.2402 H   0  0  0  0  0  0  0  0  0  0  0  0
    3.5393    3.3705    0.8797 H   0  0  0  0  0  0  0  0  0  0  0  0
    2.8600    4.1408    2.3812 H   0  0  0  0  0  0  0  0  0  0  0  0
    4.0149    4.9948    1.3635 H   0  0  0  0  0  0  0  0  0  0  0  0
  1 18  1  0  0  0  0
  1 30  1  0  0  0  0
  2 22  1  0  0  0  0
  2 31  1  0  0  0  0
  3 20  2  0  0  0  0
  4 27  1  0  0  0  0
  4 32  1  0  0  0  0
  5  7  1  0  0  0  0
  5  9  1  0  0  0  0
  5 13  1  0  0  0  0
  6 11  1  0  0  0  0
  6 20  1  0  0  0  0
  6 34  1  0  0  0  0
  7 12  2  0  0  0  0
  8  9  2  0  0  0  0
  8 12  1  0  0  0  0
 10 11  1  0  0  0  0
 10 12  1  0  0  0  0
 10 14  2  0  0  0  0
 11 15  2  0  0  0  0
 13 16  2  0  0  0  0
 13 17  1  0  0  0  0
 14 21  1  0  0  0  0
 14 33  1  0  0  0  0
 15 23  1  0  0  0  0
 15 35  1  0  0  0  0
 16 18  1  0  0  0  0
 16 36  1  0  0  0  0
 17 24  2  0  0  0  0
 17 37  1  0  0  0  0
 18 22  2  0  0  0  0
 19 20  1  0  0  0  0
 19 25  2  0  0  0  0
 19 26  1  0  0  0  0
 21 23  2  0  0  0  0
 21 38  1  0  0  0  0
 22 24  1  0  0  0  0
 23 39  1  0  0  0  0
 24 40  1  0  0  0  0
 25 28  1  0  0  0  0
 25 41  1  0  0  0  0
 26 29  2  0  0  0  0
 26 42  1  0  0  0  0
 27 28  2  0  0  0  0
 27 29  1  0  0  0  0
 28 43  1  0  0  0  0
 29 44  1  0  0  0  0
 30 45  1  0  0  0  0
 30 46  1  0  0  0  0
 30 47  1  0  0  0  0
 31 48  1  0  0  0  0
 31 49  1  0  0  0  0
 31 50  1  0  0  0  0
 32 51  1  0  0  0  0
 32 52  1  0  0  0  0
 32 53  1  0  0  0  0
M  END
> <PUBCHEM_COMPOUND_CID>
134130525

> <PUBCHEM_CONFORMER_RMSD>
1

> <PUBCHEM_CONFORMER_DIVERSEORDER>
1
25
26
37
6
22
28
35
15
38
4
21
19
8
23
29
2
7
33
20
16
27
11
14
10
24
5
17
30
18
34
12
36
31
13
32
3
9

> <PUBCHEM_MMFF94_PARTIAL_CHARGES>
44
1 -0.36
10 0.05
11 0.12
12 0.46
13 -0.02
14 -0.15
15 -0.15
16 -0.15
17 -0.15
18 0.08
19 0.09
2 -0.36
20 0.54
21 -0.15
22 0.08
23 -0.15
24 -0.15
25 -0.15
26 -0.15
27 0.08
28 -0.15
29 -0.15
3 -0.57
30 0.28
31 0.28
32 0.28
33 0.15
34 0.37
35 0.15
36 0.15
37 0.15
38 0.15
39 0.15
4 -0.36
40 0.15
41 0.15
42 0.15
43 0.15
44 0.15
5 0.86
6 -0.55
7 -0.71
8 -0.23
9 -0.42

> <PUBCHEM_EFFECTIVE_ROTOR_COUNT>
8

> <PUBCHEM_PHARMACOPHORE_FEATURES>
10
1 1 acceptor
1 2 acceptor
1 3 acceptor
1 4 acceptor
1 6 donor
3 7 8 12 cation
5 5 7 8 9 12 rings
6 10 11 14 15 21 23 rings
6 13 16 17 18 22 24 rings
6 19 25 26 27 28 29 rings

> <PUBCHEM_HEAVY_ATOM_COUNT>
32

> <PUBCHEM_ATOM_DEF_STEREO_COUNT>
0

> <PUBCHEM_ATOM_UDEF_STEREO_COUNT>
0

> <PUBCHEM_BOND_DEF_STEREO_COUNT>
0

> <PUBCHEM_BOND_UDEF_STEREO_COUNT>
0

> <PUBCHEM_ISOTOPIC_ATOM_COUNT>
0

> <PUBCHEM_COMPONENT_COUNT>
1

> <PUBCHEM_CACTVS_TAUTO_COUNT>
6

> <PUBCHEM_CONFORMER_ID>
07FEAB5D00000001

> <PUBCHEM_MMFF94_ENERGY>
124.4522

> <PUBCHEM_FEATURE_SELFOVERLAP>
50.752

> <PUBCHEM_SHAPE_FINGERPRINT>
10050765 1 18195242446795777855
100830 39 18050847720509412402
1100329 8 18339646616654326369
12104220 1 18193832649217730366
12107183 9 17180519287757944458
12166972 35 18040158422075337774
12788726 201 18337408040939236502
12978246 48 17544197073522115288
13402501 40 18052257598235357420
138480 1 14448250291693572209
14068700 675 18335141952016978502
14394314 77 18267027163194527281
14647877 51 18340483477793492432
14725015 67 18410288099586270859
14790565 3 17620760479787336649
14931854 50 18335713766118403950
15297060 5 17984984786738317443
15320467 1 18194400228296758816
15400415 2 16969703288367816760
15419008 47 17988634165480233002
15439362 3 18194395813735114161
15927050 60 17764871686195952383
15968369 26 17901094545183753189
17093844 170 17907863151438922976
18336668 15 18114749243801056284
18681886 176 18412538838538805274
20531524 4 17185056388156064820
20642791 35 18340488984495284799
20764821 26 18410014299373649377
20775438 99 17693635414517659047
21033650 10 17976003989270517718
21344244 246 17908687768881765111
23559900 14 18338791329556594139
238918 7 17336187534306758440
3298306 158 17621887912411317733
373842 8 18339635754945701296
463206 1 18266464191729157577
469060 322 18269567047991891643
5047190 69 18340758244806389818
532947 4 18123185973026103287
550186 7 17984703316526209142
6669772 16 18051689146881887197
9980921 221 17978253581882281718

> <PUBCHEM_SHAPE_MULTIPOLES>
610.16
11.07
7.4
1.04
0.52
8.88
-0.18
-10.34
-1.81
3.18
1.97
0.83
0.36
0.6

> <PUBCHEM_SHAPE_SELFOVERLAP>
1337.134

> <PUBCHEM_SHAPE_VOLUME>
331.2

> <PUBCHEM_COORDINATE_TYPE>
2
5
10

$$$$