118737177
  -OEChem-03242010103D

 56 59  0     0  0  0  0  0  0999 V2000
   -7.0884   -1.9741   -0.3142 O   0  0  0  0  0  0  0  0  0  0  0  0
    2.5979   -3.4178   -0.7413 O   0  0  0  0  0  0  0  0  0  0  0  0
    5.1493   -4.1040    0.1238 O   0  0  0  0  0  0  0  0  0  0  0  0
    4.5152    2.1482   -0.3398 O   0  0  0  0  0  0  0  0  0  0  0  0
    2.2579    1.5641   -0.0428 N   0  0  0  0  0  0  0  0  0  0  0  0
   -2.1203    0.3791    0.3751 N   0  0  0  0  0  0  0  0  0  0  0  0
   -1.8610    1.6272   -0.0395 N   0  0  0  0  0  0  0  0  0  0  0  0
   -0.1014    0.5985    0.9470 N   0  0  0  0  0  0  0  0  0  0  0  0
   -1.1061   -0.2687    0.9653 N   0  0  0  0  0  0  0  0  0  0  0  0
    0.2238    2.8931    0.1340 C   0  0  0  0  0  0  0  0  0  0  0  0
    1.6033    2.8003   -0.0503 C   0  0  0  0  0  0  0  0  0  0  0  0
   -0.5843    1.7200    0.3408 C   0  0  0  0  0  0  0  0  0  0  0  0
    4.0253   -0.1137   -0.1035 C   0  0  0  0  0  0  0  0  0  0  0  0
   -0.3992    4.1411    0.1202 C   0  0  0  0  0  0  0  0  0  0  0  0
    2.3598    3.9553   -0.2484 C   0  0  0  0  0  0  0  0  0  0  0  0
   -3.3665   -0.2107    0.2030 C   0  0  0  0  0  0  0  0  0  0  0  0
    3.6277    1.3165   -0.1829 C   0  0  0  0  0  0  0  0  0  0  0  0
    3.1186   -1.1109   -0.4623 C   0  0  0  0  0  0  0  0  0  0  0  0
    0.3574    5.2961   -0.0779 C   0  0  0  0  0  0  0  0  0  0  0  0
    1.7369    5.2033   -0.2622 C   0  0  0  0  0  0  0  0  0  0  0  0
    5.3057   -0.4582    0.3300 C   0  0  0  0  0  0  0  0  0  0  0  0
    3.4922   -2.4527   -0.3878 C   0  0  0  0  0  0  0  0  0  0  0  0
   -3.5894   -1.5133    0.6493 C   0  0  0  0  0  0  0  0  0  0  0  0
   -4.3943    0.4993   -0.4178 C   0  0  0  0  0  0  0  0  0  0  0  0
    4.7724   -2.7973    0.0455 C   0  0  0  0  0  0  0  0  0  0  0  0
    5.6793   -1.7999    0.4045 C   0  0  0  0  0  0  0  0  0  0  0  0
   -5.8677   -1.3959   -0.1457 C   0  0  0  0  0  0  0  0  0  0  0  0
   -4.8400   -2.1059    0.4750 C   0  0  0  0  0  0  0  0  0  0  0  0
   -5.6449   -0.0933   -0.5922 C   0  0  0  0  0  0  0  0  0  0  0  0
   -8.2222   -1.1078   -0.3153 C   0  0  0  0  0  0  0  0  0  0  0  0
   -9.4233   -1.8669    0.2072 C   0  0  0  0  0  0  0  0  0  0  0  0
    1.3106   -2.9810   -1.1732 C   0  0  0  0  0  0  0  0  0  0  0  0
    6.4756   -4.3698    0.5764 C   0  0  0  0  0  0  0  0  0  0  0  0
    1.6561    0.7702    0.1439 H   0  0  0  0  0  0  0  0  0  0  0  0
   -1.4713    4.2470    0.2682 H   0  0  0  0  0  0  0  0  0  0  0  0
    3.4277    3.9789   -0.4056 H   0  0  0  0  0  0  0  0  0  0  0  0
    2.1514   -0.8163   -0.8478 H   0  0  0  0  0  0  0  0  0  0  0  0
   -0.1272    6.2681   -0.0874 H   0  0  0  0  0  0  0  0  0  0  0  0
    2.3243    6.1037   -0.4175 H   0  0  0  0  0  0  0  0  0  0  0  0
    6.0248    0.3040    0.6190 H   0  0  0  0  0  0  0  0  0  0  0  0
   -2.8147   -2.0994    1.1370 H   0  0  0  0  0  0  0  0  0  0  0  0
   -4.2578    1.5134   -0.7846 H   0  0  0  0  0  0  0  0  0  0  0  0
    6.6887   -1.9929    0.7509 H   0  0  0  0  0  0  0  0  0  0  0  0
   -5.0083   -3.1208    0.8248 H   0  0  0  0  0  0  0  0  0  0  0  0
   -6.4094    0.4833   -1.1046 H   0  0  0  0  0  0  0  0  0  0  0  0
   -8.0729   -0.2390    0.3381 H   0  0  0  0  0  0  0  0  0  0  0  0
   -8.4149   -0.7685   -1.3390 H   0  0  0  0  0  0  0  0  0  0  0  0
   -9.6191   -2.7503   -0.4095 H   0  0  0  0  0  0  0  0  0  0  0  0
  -10.3155   -1.2344    0.2102 H   0  0  0  0  0  0  0  0  0  0  0  0
   -9.2402   -2.2247    1.2259 H   0  0  0  0  0  0  0  0  0  0  0  0
    0.7267   -3.8793   -1.4002 H   0  0  0  0  0  0  0  0  0  0  0  0
    1.3702   -2.4013   -2.1007 H   0  0  0  0  0  0  0  0  0  0  0  0
    0.7749   -2.4498   -0.3791 H   0  0  0  0  0  0  0  0  0  0  0  0
    6.6041   -5.4573    0.5761 H   0  0  0  0  0  0  0  0  0  0  0  0
    6.6252   -4.0328    1.6078 H   0  0  0  0  0  0  0  0  0  0  0  0
    7.2257   -3.9612   -0.1092 H   0  0  0  0  0  0  0  0  0  0  0  0
  1 27  1  0  0  0  0
  1 30  1  0  0  0  0
  2 22  1  0  0  0  0
  2 32  1  0  0  0  0
  3 25  1  0  0  0  0
  3 33  1  0  0  0  0
  4 17  2  0  0  0  0
  5 11  1  0  0  0  0
  5 17  1  0  0  0  0
  5 34  1  0  0  0  0
  6  7  1  0  0  0  0
  6  9  1  0  0  0  0
  6 16  1  0  0  0  0
  7 12  2  0  0  0  0
  8  9  2  0  0  0  0
  8 12  1  0  0  0  0
 10 11  1  0  0  0  0
 10 12  1  0  0  0  0
 10 14  2  0  0  0  0
 11 15  2  0  0  0  0
 13 17  1  0  0  0  0
 13 18  2  0  0  0  0
 13 21  1  0  0  0  0
 14 19  1  0  0  0  0
 14 35  1  0  0  0  0
 15 20  1  0  0  0  0
 15 36  1  0  0  0  0
 16 23  2  0  0  0  0
 16 24  1  0  0  0  0
 18 22  1  0  0  0  0
 18 37  1  0  0  0  0
 19 20  2  0  0  0  0
 19 38  1  0  0  0  0
 20 39  1  0  0  0  0
 21 26  2  0  0  0  0
 21 40  1  0  0  0  0
 22 25  2  0  0  0  0
 23 28  1  0  0  0  0
 23 41  1  0  0  0  0
 24 29  2  0  0  0  0
 24 42  1  0  0  0  0
 25 26  1  0  0  0  0
 26 43  1  0  0  0  0
 27 28  2  0  0  0  0
 27 29  1  0  0  0  0
 28 44  1  0  0  0  0
 29 45  1  0  0  0  0
 30 31  1  0  0  0  0
 30 46  1  0  0  0  0
 30 47  1  0  0  0  0
 31 48  1  0  0  0  0
 31 49  1  0  0  0  0
 31 50  1  0  0  0  0
 32 51  1  0  0  0  0
 32 52  1  0  0  0  0
 32 53  1  0  0  0  0
 33 54  1  0  0  0  0
 33 55  1  0  0  0  0
 33 56  1  0  0  0  0
M  END
> <PUBCHEM_COMPOUND_CID>
118737177

> <PUBCHEM_CONFORMER_RMSD>
1

> <PUBCHEM_CONFORMER_DIVERSEORDER>
5
37
2
19
26
35
16
39
22
7
31
8
36
28
9
38
34
29
12
14
15
24
10
25
23
32
4
21
33
20
3
17
11
18
27
1
30
13
6

> <PUBCHEM_MMFF94_PARTIAL_CHARGES>
44
1 -0.36
10 0.05
11 0.12
12 0.46
13 0.09
14 -0.15
15 -0.15
16 -0.02
17 0.54
18 -0.15
19 -0.15
2 -0.36
20 -0.15
21 -0.15
22 0.08
23 -0.15
24 -0.15
25 0.08
26 -0.15
27 0.08
28 -0.15
29 -0.15
3 -0.36
30 0.28
32 0.28
33 0.28
34 0.37
35 0.15
36 0.15
37 0.15
38 0.15
39 0.15
4 -0.57
40 0.15
41 0.15
42 0.15
43 0.15
44 0.15
45 0.15
5 -0.55
6 0.86
7 -0.71
8 -0.23
9 -0.42

> <PUBCHEM_EFFECTIVE_ROTOR_COUNT>
9

> <PUBCHEM_PHARMACOPHORE_FEATURES>
10
1 1 acceptor
1 2 acceptor
1 3 acceptor
1 4 acceptor
1 5 donor
3 7 8 12 cation
5 6 7 8 9 12 rings
6 10 11 14 15 19 20 rings
6 13 18 21 22 25 26 rings
6 16 23 24 27 28 29 rings

> <PUBCHEM_HEAVY_ATOM_COUNT>
33

> <PUBCHEM_ATOM_DEF_STEREO_COUNT>
0

> <PUBCHEM_ATOM_UDEF_STEREO_COUNT>
0

> <PUBCHEM_BOND_DEF_STEREO_COUNT>
0

> <PUBCHEM_BOND_UDEF_STEREO_COUNT>
0

> <PUBCHEM_ISOTOPIC_ATOM_COUNT>
0

> <PUBCHEM_COMPONENT_COUNT>
1

> <PUBCHEM_CACTVS_TAUTO_COUNT>
6

> <PUBCHEM_CONFORMER_ID>
0713C91900000005

> <PUBCHEM_MMFF94_ENERGY>
123.1772

> <PUBCHEM_FEATURE_SELFOVERLAP>
50.752

> <PUBCHEM_SHAPE_FINGERPRINT>
10165383 225 8969362848565439208
10411042 1 18338234860581936042
10693767 8 18339632430314076659
11135609 149 18268122375591591413
11374522 175 18410289182493932391
11607047 191 16983765431806598040
117089 54 18339647720134140190
11719270 70 18122340448559002856
11828532 37 17967823794542621779
12107183 9 18270132219061115929
12144600 37 18190745431337409235
12202916 173 18334852823340767394
12841400 136 18335702711042037955
13248334 5 18266460004162963456
1361 2 18339923847844204296
138480 1 18410578418069923256
13911852 28 18410573972340662129
13989917 61 18338800125439197811
14068700 675 18262238794751073310
14117953 113 18342181106782979654
14429380 30 18337112238115474626
14675020 138 17984131841094756488
14725015 67 18338792296088071738
14866123 147 18123472670367340681
14910700 183 18125426756592326504
15264996 151 18334856070061534667
15320467 1 18266742565823941462
15351339 4 17822846468563828971
15400415 2 17545884193112692289
15467298 65 17768518740686055535
15484559 13 18196101151710954092
15890870 6 18119255210832003180
15927050 60 17693379249782398484
17492 89 18265895762124856200
18393751 57 17982706848914751400
19315092 285 17846497032839456728
20771845 140 16630531756473810863
21133410 171 17466739911009166594
21133410 58 18337946892000685807
21478907 32 18338237050931510648
23523788 1 18123717973709331482
23559900 14 18338228367134794601
23569914 152 17978474635242462183
24771750 20 17682409387575339725
255183 313 17622181074094866049
255183 451 18342747286420023246
3103668 31 18043243532193587365
4015057 19 18335704970515959227
4616759 239 17192608436234075530
46194498 28 17749386035280708445
463206 1 18409169939068389182
5309563 4 18411702054386088972
56633871 153 18196385718468408649
6004065 56 18410008874956087322
6299153 45 18271538533393344977
6695519 79 17259364674048482617
7970288 3 18410571756448851762
9831232 110 18264488558871430199
9962374 69 18268420404031578199

> <PUBCHEM_SHAPE_MULTIPOLES>
630.74
19.02
7.11
0.79
38.74
6.61
0.02
-25.73
-0.11
-10.78
0.38
0
-0.25
-0.36

> <PUBCHEM_SHAPE_SELFOVERLAP>
1374.612

> <PUBCHEM_SHAPE_VOLUME>
344.5

> <PUBCHEM_COORDINATE_TYPE>
2
5
10

$$$$