72735227
  -OEChem-03242010103D

 46 49  0     0  0  0  0  0  0999 V2000
   -1.4252   -4.4080    2.0957 Br  0  0  0  0  0  0  0  0  0  0  0  0
    3.7213   -2.2996    0.4103 O   0  0  0  0  0  0  0  0  0  0  0  0
    5.7644   -0.5231   -0.2172 O   0  0  0  0  0  0  0  0  0  0  0  0
   -2.7751   -0.1260   -0.6738 N   0  0  0  0  0  0  0  0  0  0  0  0
   -0.4832    0.3286   -0.3964 N   0  0  0  0  0  0  0  0  0  0  0  0
    0.2646    2.5259    0.2513 N   0  0  0  0  0  0  0  0  0  0  0  0
   -2.0802    2.1038   -0.0218 C   0  0  0  0  0  0  0  0  0  0  0  0
   -1.7457    0.7942   -0.3551 C   0  0  0  0  0  0  0  0  0  0  0  0
   -1.0081    2.9583    0.2829 C   0  0  0  0  0  0  0  0  0  0  0  0
    0.4579    1.2348   -0.0866 C   0  0  0  0  0  0  0  0  0  0  0  0
    1.8233    0.7795   -0.1184 C   0  0  0  0  0  0  0  0  0  0  0  0
   -3.4071    2.5667    0.0144 C   0  0  0  0  0  0  0  0  0  0  0  0
   -1.3036    4.2766    0.6212 C   0  0  0  0  0  0  0  0  0  0  0  0
    2.1208   -0.5534    0.1657 C   0  0  0  0  0  0  0  0  0  0  0  0
    2.8486    1.6708   -0.4344 C   0  0  0  0  0  0  0  0  0  0  0  0
   -2.8827   -1.5173   -0.5205 C   0  0  0  0  0  0  0  0  0  0  0  0
    3.4436   -0.9950    0.1337 C   0  0  0  0  0  0  0  0  0  0  0  0
   -3.6734    3.8890    0.3558 C   0  0  0  0  0  0  0  0  0  0  0  0
    4.4689   -0.1036   -0.1823 C   0  0  0  0  0  0  0  0  0  0  0  0
   -2.6203    4.7446    0.6595 C   0  0  0  0  0  0  0  0  0  0  0  0
    4.1714    1.2293   -0.4662 C   0  0  0  0  0  0  0  0  0  0  0  0
   -2.2187   -2.1570    0.5263 C   0  0  0  0  0  0  0  0  0  0  0  0
   -3.6525   -2.2602   -1.4156 C   0  0  0  0  0  0  0  0  0  0  0  0
   -2.3247   -3.5395    0.6779 C   0  0  0  0  0  0  0  0  0  0  0  0
   -3.7582   -3.6428   -1.2641 C   0  0  0  0  0  0  0  0  0  0  0  0
   -3.0942   -4.2826   -0.2173 C   0  0  0  0  0  0  0  0  0  0  0  0
    2.6159   -3.1449    0.7238 C   0  0  0  0  0  0  0  0  0  0  0  0
    6.7522    0.4510   -0.5487 C   0  0  0  0  0  0  0  0  0  0  0  0
   -4.2527    1.9224   -0.2092 H   0  0  0  0  0  0  0  0  0  0  0  0
   -3.4706    0.2633   -1.3045 H   0  0  0  0  0  0  0  0  0  0  0  0
   -0.4973    4.9664    0.8632 H   0  0  0  0  0  0  0  0  0  0  0  0
    1.2972   -1.2118    0.4206 H   0  0  0  0  0  0  0  0  0  0  0  0
    2.6477    2.7132   -0.6706 H   0  0  0  0  0  0  0  0  0  0  0  0
   -4.6968    4.2501    0.3869 H   0  0  0  0  0  0  0  0  0  0  0  0
   -2.8196    5.7782    0.9274 H   0  0  0  0  0  0  0  0  0  0  0  0
    4.9153    1.9761   -0.7215 H   0  0  0  0  0  0  0  0  0  0  0  0
   -1.6270   -1.5843    1.2367 H   0  0  0  0  0  0  0  0  0  0  0  0
   -4.1744   -1.7748   -2.2363 H   0  0  0  0  0  0  0  0  0  0  0  0
   -4.3572   -4.2213   -1.9614 H   0  0  0  0  0  0  0  0  0  0  0  0
   -3.1870   -5.3606   -0.1135 H   0  0  0  0  0  0  0  0  0  0  0  0
    3.0196   -4.1452    0.9127 H   0  0  0  0  0  0  0  0  0  0  0  0
    1.9243   -3.2377   -0.1207 H   0  0  0  0  0  0  0  0  0  0  0  0
    2.1130   -2.8284    1.6441 H   0  0  0  0  0  0  0  0  0  0  0  0
    7.7231   -0.0551   -0.5289 H   0  0  0  0  0  0  0  0  0  0  0  0
    6.7960    1.2516    0.1975 H   0  0  0  0  0  0  0  0  0  0  0  0
    6.6149    0.8352   -1.5652 H   0  0  0  0  0  0  0  0  0  0  0  0
  1 24  1  0  0  0  0
  2 17  1  0  0  0  0
  2 27  1  0  0  0  0
  3 19  1  0  0  0  0
  3 28  1  0  0  0  0
  4  8  1  0  0  0  0
  4 16  1  0  0  0  0
  4 30  1  0  0  0  0
  5  8  2  0  0  0  0
  5 10  1  0  0  0  0
  6  9  1  0  0  0  0
  6 10  2  0  0  0  0
  7  8  1  0  0  0  0
  7  9  1  0  0  0  0
  7 12  2  0  0  0  0
  9 13  2  0  0  0  0
 10 11  1  0  0  0  0
 11 14  2  0  0  0  0
 11 15  1  0  0  0  0
 12 18  1  0  0  0  0
 12 29  1  0  0  0  0
 13 20  1  0  0  0  0
 13 31  1  0  0  0  0
 14 17  1  0  0  0  0
 14 32  1  0  0  0  0
 15 21  2  0  0  0  0
 15 33  1  0  0  0  0
 16 22  2  0  0  0  0
 16 23  1  0  0  0  0
 17 19  2  0  0  0  0
 18 20  2  0  0  0  0
 18 34  1  0  0  0  0
 19 21  1  0  0  0  0
 20 35  1  0  0  0  0
 21 36  1  0  0  0  0
 22 24  1  0  0  0  0
 22 37  1  0  0  0  0
 23 25  2  0  0  0  0
 23 38  1  0  0  0  0
 24 26  2  0  0  0  0
 25 26  1  0  0  0  0
 25 39  1  0  0  0  0
 26 40  1  0  0  0  0
 27 41  1  0  0  0  0
 27 42  1  0  0  0  0
 27 43  1  0  0  0  0
 28 44  1  0  0  0  0
 28 45  1  0  0  0  0
 28 46  1  0  0  0  0
M  END
> <PUBCHEM_COMPOUND_CID>
72735227

> <PUBCHEM_CONFORMER_RMSD>
0.8

> <PUBCHEM_CONFORMER_DIVERSEORDER>
1
74
13
53
23
66
37
94
29
40
32
88
17
85
87
30
5
72
54
6
34
69
39
68
9
48
7
86
70
47
26
80
43
33
98
8
46
20
44
14
52
36
45
22
38
16
51
35
96
71
41
50
11
2
83
49
27
95
4
31
19
91
75
97
28
64
79
3
42
73
67
60
10
78
76
65
57
18
93
21
82
81
56
15
90
89
77
62
84
12
61
63
25
58
55
92
24
59

> <PUBCHEM_MMFF94_PARTIAL_CHARGES>
38
1 -0.11
10 0.62
12 -0.15
13 -0.15
14 -0.15
15 -0.15
16 0.1
17 0.08
18 -0.15
19 0.08
2 -0.36
20 -0.15
21 -0.15
22 -0.15
23 -0.15
24 0.11
25 -0.15
26 -0.15
27 0.28
28 0.28
29 0.15
3 -0.36
30 0.4
31 0.15
32 0.15
33 0.15
34 0.15
35 0.15
36 0.15
37 0.15
38 0.15
39 0.15
4 -0.6
40 0.15
5 -0.62
6 -0.62
8 0.41
9 0.31

> <PUBCHEM_EFFECTIVE_ROTOR_COUNT>
5

> <PUBCHEM_PHARMACOPHORE_FEATURES>
10
1 1 hydrophobe
1 2 acceptor
1 3 acceptor
1 4 donor
3 4 5 8 cation
3 5 6 10 cation
6 11 14 15 17 19 21 rings
6 16 22 23 24 25 26 rings
6 5 6 7 8 9 10 rings
6 7 9 12 13 18 20 rings

> <PUBCHEM_HEAVY_ATOM_COUNT>
28

> <PUBCHEM_ATOM_DEF_STEREO_COUNT>
0

> <PUBCHEM_ATOM_UDEF_STEREO_COUNT>
0

> <PUBCHEM_BOND_DEF_STEREO_COUNT>
0

> <PUBCHEM_BOND_UDEF_STEREO_COUNT>
0

> <PUBCHEM_ISOTOPIC_ATOM_COUNT>
0

> <PUBCHEM_COMPONENT_COUNT>
1

> <PUBCHEM_CACTVS_TAUTO_COUNT>
3

> <PUBCHEM_CONFORMER_ID>
0455D9FB00000001

> <PUBCHEM_MMFF94_ENERGY>
116.4943

> <PUBCHEM_FEATURE_SELFOVERLAP>
50.922

> <PUBCHEM_SHAPE_FINGERPRINT>
10411042 1 18196933503134627735
10616163 171 18412544297483611638
10940486 97 18263651658787246332
1100329 8 17977099059469267922
11056379 131 18341059549061647476
11227688 84 17691687109544701886
114674 6 17398944363558542699
12553582 1 18265329689171496451
12788726 201 18409157814518222163
13140716 1 18268997664156744401
13631057 29 18339921614840908132
138480 1 16322314088241891605
13911987 19 17180260309693225756
14068700 686 18200026374121013680
14251757 5 18408881863016705295
14363568 33 17254573001899880050
14659021 117 18337383941624336264
14790565 3 17835242246654184872
14844126 61 18409451379743234873
14866123 147 18412265039100318219
14931854 50 18187914123158132350
15042514 8 18413112775228968629
15250474 111 18335973169896697394
15351339 4 18116691020592489283
15400415 2 18123190091895283896
15463212 79 18191020114588358993
15927050 60 18124878958776765487
15950262 2 15403797677793002090
15968369 26 17255100772045042789
16087824 20 18412826860058018173
16628084 112 18264478487262798703
17859628 97 17832706768624291339
19427546 20 18410299124963168116
20028762 73 17694211180520472621
20101258 96 18269280221459555641
21120745 212 18267883841550381781
21133410 171 17546106092192137694
21133410 32 16011009863655187482
21796203 349 17542538327330592730
23558518 356 18335987493264365990
23559900 14 17834945757157525199
4073 2 18339646647293727174
4616759 239 18059278882865611968
463206 1 18048314745238248559
5309563 4 18124031496983242175
5385378 56 17117765744113722641
6004065 56 17548118382995552407
613672 6 17979895413833202499
653340 110 18340475734320710506
6673363 416 18053119586622068340
9981440 41 17978797809661906665

> <PUBCHEM_SHAPE_MULTIPOLES>
555.49
10.16
7.42
1.1
17.38
1.75
0.21
-4.2
-2.61
-10.93
2.8
-0.94
-1.17
-1.36

> <PUBCHEM_SHAPE_SELFOVERLAP>
1214.144

> <PUBCHEM_SHAPE_VOLUME>
310

> <PUBCHEM_COORDINATE_TYPE>
2
5
10

$$$$