136
 OpenBabel03292022003D

140148  0  0  1  0  0  0  0  0999 V2000
    3.4730  -13.1751   13.4995 C   0  0  0  0  0  0  0  0  0  0  0  0
    3.1827  -12.4253   14.5704 C   0  0  0  0  0  0  0  0  0  0  0  0
    1.9789  -12.5320   15.4863 C   0  0  1  0  0  0  0  0  0  0  0  0
    1.4977  -11.1213   15.9315 C   0  0  0  0  0  0  0  0  0  0  0  0
    0.0524  -10.8997   15.6860 N   0  0  3  0  0  0  0  0  0  0  0  0
   -0.6975  -11.9029   16.4794 C   0  0  0  0  0  0  0  0  0  0  0  0
   -0.2989  -13.3384   16.1015 C   0  0  0  0  0  0  0  0  0  0  0  0
    0.7385  -13.3027   14.9621 C   0  0  1  0  0  0  0  0  0  0  0  0
    0.1020  -12.5268   13.7919 C   0  0  0  0  0  0  0  0  0  0  0  0
   -0.2823  -11.0849   14.2357 C   0  0  1  0  0  0  0  0  0  0  0  0
    0.3025  -10.0190   13.2273 C   0  0  2  0  0  0  0  0  0  0  0  0
   -0.1220  -10.3493   11.8787 O   0  0  0  0  0  0  0  0  0  0  0  0
    0.7709  -10.0176   10.8985 C   0  0  0  0  0  0  0  0  0  0  0  0
    1.7722   -9.3395   11.0644 O   0  0  0  0  0  0  0  0  0  0  0  0
    0.3858  -10.6786    9.5916 C   0  0  0  0  0  0  0  0  0  0  0  0
    1.2848  -10.2732    8.4172 C   0  0  0  0  0  0  0  0  0  0  0  0
    1.0888   -8.8186    7.9760 C   0  0  0  0  0  0  0  0  0  0  0  0
    2.0175   -8.4062    6.8262 C   0  0  0  0  0  0  0  0  0  0  0  0
    1.8299   -9.1687    5.5068 C   0  0  0  0  0  0  0  0  0  0  0  0
    0.4241   -9.0921    4.9087 C   0  0  0  0  0  0  0  0  0  0  0  0
   -0.0003   -7.7109    4.5803 C   0  0  0  0  0  0  0  0  0  0  0  0
   -1.0556   -6.9952    5.0909 C   0  0  0  0  0  0  0  0  0  0  0  0
   -0.9391   -5.7721    4.5063 N   0  0  0  0  0  0  0  0  0  0  0  0
   -1.7550   -4.5986    4.7239 C   0  0  0  0  0  0  0  0  0  0  0  0
   -2.2572   -4.4542    6.1645 C   0  0  0  0  0  0  0  0  0  0  0  0
   -1.1380   -4.2822    7.2051 C   0  0  0  0  0  0  0  0  0  0  0  0
   -0.2516   -3.0513    6.9888 C   0  0  0  0  0  0  0  0  0  0  0  0
   -1.0736   -1.7679    7.0370 C   0  0  0  0  0  0  0  0  0  0  0  0
   -0.2487   -0.5125    6.7756 C   0  0  0  0  0  0  0  0  0  0  0  0
   -1.0539    0.7625    6.9230 C   0  0  0  0  0  0  0  0  0  0  0  0
   -0.5534    1.8798    6.8570 O   0  0  0  0  0  0  0  0  0  0  0  0
   -2.3680    0.5146    7.1496 O   0  0  0  0  0  0  0  0  0  0  0  0
   -3.1799    1.5947    7.6633 C   0  0  2  0  0  0  0  0  0  0  0  0
   -3.7121    1.0725    8.9972 C   0  0  0  0  0  0  0  0  0  0  0  0
   -4.6489    0.0271    8.9837 C   0  0  0  0  0  0  0  0  0  0  0  0
   -5.1764   -0.4218   10.1761 C   0  0  0  0  0  0  0  0  0  0  0  0
   -4.8295    0.0712   11.3770 N   0  0  0  0  0  0  0  0  0  0  0  0
   -3.8870    1.0232   11.4158 C   0  0  0  0  0  0  0  0  0  0  0  0
   -3.4960    1.4703   12.6681 C   0  0  0  0  0  0  0  0  0  0  0  0
   -2.4707    2.4030   12.8385 C   0  0  0  0  0  0  0  0  0  0  0  0
   -1.8247    2.9204   11.7261 C   0  0  0  0  0  0  0  0  0  0  0  0
   -0.7868    3.8099   11.7440 O   0  0  0  0  0  0  0  0  0  0  0  0
   -0.1975    4.0766   13.0117 C   0  0  0  0  0  0  0  0  0  0  0  0
   -2.2388    2.5196   10.4513 C   0  0  0  0  0  0  0  0  0  0  0  0
   -3.2683    1.5612   10.2604 C   0  0  0  0  0  0  0  0  0  0  0  0
   -4.3017    1.9540    6.6174 C   0  0  2  0  0  0  0  0  0  0  0  0
   -3.6984    2.5176    5.3047 C   0  0  0  0  0  0  0  0  0  0  0  0
   -4.2542    3.9294    5.0303 C   0  0  2  0  0  0  0  0  0  0  0  0
   -4.0343    4.7905    6.2883 C   0  0  0  0  0  0  0  0  0  0  0  0
   -4.8057    4.1850    7.4676 C   0  0  0  0  0  0  0  0  0  0  0  0
   -5.3786    2.8693    7.1154 N   0  0  3  0  0  0  0  0  0  0  0  0
   -6.3768    3.0643    6.0240 C   0  0  0  0  0  0  0  0  0  0  0  0
   -5.7854    3.8286    4.8028 C   0  0  2  0  0  0  0  0  0  0  0  0
   -6.0868    3.2861    3.4257 C   0  0  0  0  0  0  0  0  0  0  0  0
   -7.1286    2.5124    3.0642 C   0  0  0  0  0  0  0  0  0  0  0  0
    0.0911   -5.7391    3.6449 N   0  0  0  0  0  0  0  0  0  0  0  0
    0.6785   -6.9293    3.6830 N   0  0  0  0  0  0  0  0  0  0  0  0
   -0.0056   -8.5597   13.5648 C   0  0  0  0  0  0  0  0  0  0  0  0
    1.0914   -7.7711   13.9495 C   0  0  0  0  0  0  0  0  0  0  0  0
    0.8857   -6.4656   14.3411 C   0  0  0  0  0  0  0  0  0  0  0  0
   -0.3272   -5.8918   14.4077 N   0  0  0  0  0  0  0  0  0  0  0  0
   -1.3864   -6.6178   14.0234 C   0  0  0  0  0  0  0  0  0  0  0  0
   -2.6284   -6.0079   14.1116 C   0  0  0  0  0  0  0  0  0  0  0  0
   -3.8033   -6.6517   13.7172 C   0  0  0  0  0  0  0  0  0  0  0  0
   -3.7310   -7.9308   13.1836 C   0  0  0  0  0  0  0  0  0  0  0  0
   -4.7917   -8.6627   12.7252 O   0  0  0  0  0  0  0  0  0  0  0  0
   -6.0843   -8.2430   13.1503 C   0  0  0  0  0  0  0  0  0  0  0  0
   -2.4846   -8.5625   13.0821 C   0  0  0  0  0  0  0  0  0  0  0  0
   -1.2928   -7.9504   13.5446 C   0  0  0  0  0  0  0  0  0  0  0  0
    4.3798  -12.9854   12.9292 H   0  0  0  0  0  0  0  0  0  0  0  0
    2.8444  -13.9922   13.1646 H   0  0  0  0  0  0  0  0  0  0  0  0
    3.9062  -11.6548   14.8405 H   0  0  0  0  0  0  0  0  0  0  0  0
    2.3395  -13.0558   16.3842 H   0  0  0  0  0  0  0  0  0  0  0  0
    2.0802  -10.3190   15.4668 H   0  0  0  0  0  0  0  0  0  0  0  0
    1.6913  -11.0117   17.0085 H   0  0  0  0  0  0  0  0  0  0  0  0
   -1.7764  -11.7616   16.3411 H   0  0  0  0  0  0  0  0  0  0  0  0
   -0.5195  -11.7389   17.5503 H   0  0  0  0  0  0  0  0  0  0  0  0
   -1.1857  -13.9029   15.7896 H   0  0  0  0  0  0  0  0  0  0  0  0
    0.1193  -13.8544   16.9750 H   0  0  0  0  0  0  0  0  0  0  0  0
    0.9950  -14.3245   14.6616 H   0  0  0  0  0  0  0  0  0  0  0  0
   -0.8004  -13.0539   13.4571 H   0  0  0  0  0  0  0  0  0  0  0  0
    0.7889  -12.5153   12.9404 H   0  0  0  0  0  0  0  0  0  0  0  0
   -1.3746  -11.0124   14.1511 H   0  0  0  0  0  0  0  0  0  0  0  0
    1.3906  -10.1618   13.2620 H   0  0  0  0  0  0  0  0  0  0  0  0
   -0.6625  -10.4673    9.3576 H   0  0  0  0  0  0  0  0  0  0  0  0
    0.4980  -11.7590    9.7453 H   0  0  0  0  0  0  0  0  0  0  0  0
    1.0602  -10.9406    7.5772 H   0  0  0  0  0  0  0  0  0  0  0  0
    2.3374  -10.4362    8.6799 H   0  0  0  0  0  0  0  0  0  0  0  0
    1.2929   -8.1478    8.8185 H   0  0  0  0  0  0  0  0  0  0  0  0
    0.0423   -8.6493    7.7008 H   0  0  0  0  0  0  0  0  0  0  0  0
    3.0592   -8.5304    7.1485 H   0  0  0  0  0  0  0  0  0  0  0  0
    1.8874   -7.3320    6.6444 H   0  0  0  0  0  0  0  0  0  0  0  0
    2.0927  -10.2227    5.6518 H   0  0  0  0  0  0  0  0  0  0  0  0
    2.5521   -8.7749    4.7798 H   0  0  0  0  0  0  0  0  0  0  0  0
   -0.2979   -9.5464    5.5981 H   0  0  0  0  0  0  0  0  0  0  0  0
    0.3880   -9.6941    3.9935 H   0  0  0  0  0  0  0  0  0  0  0  0
   -1.8101   -7.2383    5.8225 H   0  0  0  0  0  0  0  0  0  0  0  0
   -2.6033   -4.6800    4.0355 H   0  0  0  0  0  0  0  0  0  0  0  0
   -1.1753   -3.7189    4.4217 H   0  0  0  0  0  0  0  0  0  0  0  0
   -2.8567   -5.3294    6.4416 H   0  0  0  0  0  0  0  0  0  0  0  0
   -2.9546   -3.6111    6.2147 H   0  0  0  0  0  0  0  0  0  0  0  0
   -0.5013   -5.1742    7.2254 H   0  0  0  0  0  0  0  0  0  0  0  0
   -1.5995   -4.2200    8.1987 H   0  0  0  0  0  0  0  0  0  0  0  0
    0.2863   -3.1281    6.0376 H   0  0  0  0  0  0  0  0  0  0  0  0
    0.5129   -3.0266    7.7751 H   0  0  0  0  0  0  0  0  0  0  0  0
   -1.5603   -1.7011    8.0185 H   0  0  0  0  0  0  0  0  0  0  0  0
   -1.8693   -1.8037    6.2857 H   0  0  0  0  0  0  0  0  0  0  0  0
    0.1599   -0.5445    5.7597 H   0  0  0  0  0  0  0  0  0  0  0  0
    0.5782   -0.4647    7.4922 H   0  0  0  0  0  0  0  0  0  0  0  0
   -2.5769    2.4917    7.8151 H   0  0  0  0  0  0  0  0  0  0  0  0
   -4.9679   -0.4384    8.0578 H   0  0  0  0  0  0  0  0  0  0  0  0
   -5.9136   -1.2186   10.1976 H   0  0  0  0  0  0  0  0  0  0  0  0
   -3.9920    1.0616   13.5461 H   0  0  0  0  0  0  0  0  0  0  0  0
   -2.2022    2.6877   13.8498 H   0  0  0  0  0  0  0  0  0  0  0  0
    0.6770    4.7134   12.8475 H   0  0  0  0  0  0  0  0  0  0  0  0
    0.1486    3.1558   13.4942 H   0  0  0  0  0  0  0  0  0  0  0  0
   -0.8929    4.6230   13.6569 H   0  0  0  0  0  0  0  0  0  0  0  0
   -1.7072    2.9491    9.6064 H   0  0  0  0  0  0  0  0  0  0  0  0
   -4.7849    1.0047    6.3463 H   0  0  0  0  0  0  0  0  0  0  0  0
   -3.9571    1.8489    4.4740 H   0  0  0  0  0  0  0  0  0  0  0  0
   -2.6067    2.5619    5.3414 H   0  0  0  0  0  0  0  0  0  0  0  0
   -3.7439    4.3820    4.1734 H   0  0  0  0  0  0  0  0  0  0  0  0
   -4.3863    5.8134    6.1072 H   0  0  0  0  0  0  0  0  0  0  0  0
   -2.9653    4.8513    6.5222 H   0  0  0  0  0  0  0  0  0  0  0  0
   -5.6094    4.8634    7.7817 H   0  0  0  0  0  0  0  0  0  0  0  0
   -4.1514    4.1037    8.3425 H   0  0  0  0  0  0  0  0  0  0  0  0
   -7.2312    3.6284    6.4198 H   0  0  0  0  0  0  0  0  0  0  0  0
   -6.7798    2.0838    5.7466 H   0  0  0  0  0  0  0  0  0  0  0  0
   -6.1828    4.8542    4.8154 H   0  0  0  0  0  0  0  0  0  0  0  0
   -5.3996    3.5833    2.6369 H   0  0  0  0  0  0  0  0  0  0  0  0
   -7.8908    2.1978    3.7612 H   0  0  0  0  0  0  0  0  0  0  0  0
   -7.2398    2.1989    2.0304 H   0  0  0  0  0  0  0  0  0  0  0  0
    2.1025   -8.1667   13.9401 H   0  0  0  0  0  0  0  0  0  0  0  0
    1.7186   -5.8306   14.6272 H   0  0  0  0  0  0  0  0  0  0  0  0
   -2.6854   -4.9957   14.5086 H   0  0  0  0  0  0  0  0  0  0  0  0
   -4.7414   -6.1174   13.8235 H   0  0  0  0  0  0  0  0  0  0  0  0
   -6.7861   -9.0501   12.9188 H   0  0  0  0  0  0  0  0  0  0  0  0
   -6.4050   -7.3509   12.6021 H   0  0  0  0  0  0  0  0  0  0  0  0
   -6.1222   -8.0747   14.2322 H   0  0  0  0  0  0  0  0  0  0  0  0
   -2.4550   -9.5489   12.6281 H   0  0  0  0  0  0  0  0  0  0  0  0
  1  2  2  0  0  0  0
  1 70  1  0  0  0  0
  1 71  1  0  0  0  0
  2 72  1  0  0  0  0
  3  4  1  0  0  0  0
  3  8  1  0  0  0  0
  3  2  1  0  0  0  0
  3 73  1  1  0  0  0
  4  5  1  0  0  0  0
  4 74  1  0  0  0  0
  4 75  1  0  0  0  0
  5  6  1  0  0  0  0
  5 10  1  0  0  0  0
  6  7  1  0  0  0  0
  6 76  1  0  0  0  0
  6 77  1  0  0  0  0
  7  8  1  0  0  0  0
  7 78  1  0  0  0  0
  7 79  1  0  0  0  0
  8  9  1  0  0  0  0
  8 80  1  6  0  0  0
  9 10  1  0  0  0  0
  9 81  1  0  0  0  0
  9 82  1  0  0  0  0
 10 11  1  0  0  0  0
 10 83  1  1  0  0  0
 11 58  1  0  0  0  0
 11 12  1  0  0  0  0
 11 84  1  6  0  0  0
 12 13  1  0  0  0  0
 13 14  2  0  0  0  0
 13 15  1  0  0  0  0
 15 16  1  0  0  0  0
 15 85  1  0  0  0  0
 15 86  1  0  0  0  0
 16 17  1  0  0  0  0
 16 87  1  0  0  0  0
 16 88  1  0  0  0  0
 17 18  1  0  0  0  0
 17 89  1  0  0  0  0
 17 90  1  0  0  0  0
 18 19  1  0  0  0  0
 18 91  1  0  0  0  0
 18 92  1  0  0  0  0
 19 20  1  0  0  0  0
 19 93  1  0  0  0  0
 19 94  1  0  0  0  0
 20 21  1  0  0  0  0
 20 95  1  0  0  0  0
 20 96  1  0  0  0  0
 21 22  2  0  0  0  0
 21 57  1  0  0  0  0
 22 23  1  0  0  0  0
 22 97  1  0  0  0  0
 23 24  1  0  0  0  0
 23 56  1  0  0  0  0
 24 25  1  0  0  0  0
 24 98  1  0  0  0  0
 24 99  1  0  0  0  0
 25 26  1  0  0  0  0
 25100  1  0  0  0  0
 25101  1  0  0  0  0
 26 27  1  0  0  0  0
 26102  1  0  0  0  0
 26103  1  0  0  0  0
 27 28  1  0  0  0  0
 27104  1  0  0  0  0
 27105  1  0  0  0  0
 28 29  1  0  0  0  0
 28106  1  0  0  0  0
 28107  1  0  0  0  0
 29 30  1  0  0  0  0
 29108  1  0  0  0  0
 29109  1  0  0  0  0
 30 31  2  0  0  0  0
 30 32  1  0  0  0  0
 33 46  1  0  0  0  0
 33 34  1  0  0  0  0
 33 32  1  0  0  0  0
 33110  1  1  0  0  0
 34 35  1  0  0  0  0
 34 45  2  0  0  0  0
 35 36  2  0  0  0  0
 35111  1  0  0  0  0
 36 37  1  0  0  0  0
 36112  1  0  0  0  0
 37 38  2  0  0  0  0
 38 39  1  0  0  0  0
 38 45  1  0  0  0  0
 39 40  2  0  0  0  0
 39113  1  0  0  0  0
 40 41  1  0  0  0  0
 40114  1  0  0  0  0
 41 42  1  0  0  0  0
 41 44  2  0  0  0  0
 42 43  1  0  0  0  0
 43115  1  0  0  0  0
 43116  1  0  0  0  0
 43117  1  0  0  0  0
 44 45  1  0  0  0  0
 44118  1  0  0  0  0
 46 47  1  0  0  0  0
 46 51  1  0  0  0  0
 46119  1  6  0  0  0
 47 48  1  0  0  0  0
 47120  1  0  0  0  0
 47121  1  0  0  0  0
 48 49  1  0  0  0  0
 48 53  1  0  0  0  0
 48122  1  6  0  0  0
 49 50  1  0  0  0  0
 49123  1  0  0  0  0
 49124  1  0  0  0  0
 50 51  1  0  0  0  0
 50125  1  0  0  0  0
 50126  1  0  0  0  0
 51 52  1  0  0  0  0
 52 53  1  0  0  0  0
 52127  1  0  0  0  0
 52128  1  0  0  0  0
 53 54  1  0  0  0  0
 53129  1  1  0  0  0
 54 55  2  0  0  0  0
 54130  1  0  0  0  0
 55131  1  0  0  0  0
 55132  1  0  0  0  0
 56 57  2  0  0  0  0
 58 59  1  0  0  0  0
 58 69  2  0  0  0  0
 59 60  2  0  0  0  0
 59133  1  0  0  0  0
 60 61  1  0  0  0  0
 60134  1  0  0  0  0
 61 62  2  0  0  0  0
 62 63  1  0  0  0  0
 62 69  1  0  0  0  0
 63 64  2  0  0  0  0
 63135  1  0  0  0  0
 64 65  1  0  0  0  0
 64136  1  0  0  0  0
 65 66  1  0  0  0  0
 65 68  2  0  0  0  0
 66 67  1  0  0  0  0
 67137  1  0  0  0  0
 67138  1  0  0  0  0
 67139  1  0  0  0  0
 68 69  1  0  0  0  0
 68140  1  0  0  0  0
M  END
>  <Energy>
216.352

$$$$