137
 OpenBabel03292022003D

122130  0  0  1  0  0  0  0  0999 V2000
    2.0629   -1.6983   12.7508 C   0  0  0  0  0  0  0  0  0  0  0  0
    1.5194   -0.5109   12.4519 C   0  0  0  0  0  0  0  0  0  0  0  0
    2.3198    0.6412   11.8982 C   0  0  1  0  0  0  0  0  0  0  0  0
    2.4865    0.5574   10.3605 C   0  0  0  0  0  0  0  0  0  0  0  0
    2.2956    1.8843    9.7231 N   0  0  3  0  0  0  0  0  0  0  0  0
    3.1659    2.8666   10.4123 C   0  0  0  0  0  0  0  0  0  0  0  0
    2.7631    3.0827   11.8740 C   0  0  0  0  0  0  0  0  0  0  0  0
    1.7196    2.0269   12.2540 C   0  0  1  0  0  0  0  0  0  0  0  0
    0.4851    2.3302   11.3820 C   0  0  0  0  0  0  0  0  0  0  0  0
    0.8450    2.2394    9.8738 C   0  0  1  0  0  0  0  0  0  0  0  0
    0.3735    3.4741    9.0121 C   0  0  2  0  0  0  0  0  0  0  0  0
    0.7814    3.1920    7.6500 O   0  0  0  0  0  0  0  0  0  0  0  0
    1.9670    3.7241    7.2476 C   0  0  0  0  0  0  0  0  0  0  0  0
    2.6082    4.5830    7.8401 O   0  0  0  0  0  0  0  0  0  0  0  0
    2.4304    3.1324    5.9465 C   0  0  0  0  0  0  0  0  0  0  0  0
    1.3321    3.2038    4.9027 C   0  0  0  0  0  0  0  0  0  0  0  0
    1.8999    2.9696    3.5052 C   0  0  0  0  0  0  0  0  0  0  0  0
    0.8752    3.2757    2.4239 C   0  0  0  0  0  0  0  0  0  0  0  0
   -0.1032    2.2413    2.1982 N   0  0  0  0  0  0  0  0  0  0  0  0
   -0.7724    2.0275    1.0371 C   0  0  0  0  0  0  0  0  0  0  0  0
   -1.7516    1.1318    1.3993 C   0  0  0  0  0  0  0  0  0  0  0  0
   -2.9352    0.7168    0.6353 C   0  0  0  0  0  0  0  0  0  0  0  0
   -3.6513    1.9171    0.0642 C   0  0  0  0  0  0  0  0  0  0  0  0
   -4.1207    2.9498    1.0818 C   0  0  0  0  0  0  0  0  0  0  0  0
   -3.4109    3.8613    1.5033 O   0  0  0  0  0  0  0  0  0  0  0  0
   -5.4587    2.8063    1.3262 O   0  0  0  0  0  0  0  0  0  0  0  0
   -6.1517    3.9582    1.8543 C   0  0  2  0  0  0  0  0  0  0  0  0
   -6.8973    3.6450    3.1901 C   0  0  0  0  0  0  0  0  0  0  0  0
   -7.9723    4.4778    3.5568 C   0  0  0  0  0  0  0  0  0  0  0  0
   -8.6244    4.2794    4.7546 C   0  0  0  0  0  0  0  0  0  0  0  0
   -8.2917    3.3340    5.6479 N   0  0  0  0  0  0  0  0  0  0  0  0
   -7.2491    2.5475    5.3602 C   0  0  0  0  0  0  0  0  0  0  0  0
   -6.9148    1.6084    6.3276 C   0  0  0  0  0  0  0  0  0  0  0  0
   -5.8512    0.7202    6.1689 C   0  0  0  0  0  0  0  0  0  0  0  0
   -5.1028    0.7858    5.0104 C   0  0  0  0  0  0  0  0  0  0  0  0
   -4.0881   -0.0757    4.6965 O   0  0  0  0  0  0  0  0  0  0  0  0
   -3.2080   -0.3729    5.7755 C   0  0  0  0  0  0  0  0  0  0  0  0
   -5.4241    1.7280    4.0293 C   0  0  0  0  0  0  0  0  0  0  0  0
   -6.5014    2.6417    4.1495 C   0  0  0  0  0  0  0  0  0  0  0  0
   -7.0731    4.5688    0.6700 C   0  0  2  0  0  0  0  0  0  0  0  0
   -8.3113    3.6969    0.2947 C   0  0  0  0  0  0  0  0  0  0  0  0
   -8.2290    3.2456   -1.1838 C   0  0  2  0  0  0  0  0  0  0  0  0
   -6.8148    2.6656   -1.3608 C   0  0  0  0  0  0  0  0  0  0  0  0
   -5.8378    3.8630   -1.3635 C   0  0  0  0  0  0  0  0  0  0  0  0
   -6.3837    5.0078   -0.6041 N   0  0  3  0  0  0  0  0  0  0  0  0
   -7.4184    5.5958   -1.5053 C   0  0  0  0  0  0  0  0  0  0  0  0
   -8.2781    4.4671   -2.1416 C   0  0  2  0  0  0  0  0  0  0  0  0
   -9.6195    4.9470   -2.5989 C   0  0  0  0  0  0  0  0  0  0  0  0
   -9.7231    5.7174   -3.6983 C   0  0  0  0  0  0  0  0  0  0  0  0
   -1.5742    0.7526    2.6956 N   0  0  0  0  0  0  0  0  0  0  0  0
   -0.5473    1.4356    3.1759 N   0  0  0  0  0  0  0  0  0  0  0  0
   -1.1411    3.7548    8.9913 C   0  0  0  0  0  0  0  0  0  0  0  0
   -2.0560    2.8613    9.5702 C   0  0  0  0  0  0  0  0  0  0  0  0
   -3.3971    3.1892    9.6275 C   0  0  0  0  0  0  0  0  0  0  0  0
   -3.9111    4.3131    9.1112 N   0  0  0  0  0  0  0  0  0  0  0  0
   -3.0756    5.1536    8.4924 C   0  0  0  0  0  0  0  0  0  0  0  0
   -3.6404    6.2824    7.9242 C   0  0  0  0  0  0  0  0  0  0  0  0
   -2.8743    7.2330    7.2493 C   0  0  0  0  0  0  0  0  0  0  0  0
   -1.5018    7.0590    7.1476 C   0  0  0  0  0  0  0  0  0  0  0  0
   -0.6339    7.9020    6.5103 O   0  0  0  0  0  0  0  0  0  0  0  0
   -1.2038    9.0308    5.8576 C   0  0  0  0  0  0  0  0  0  0  0  0
   -0.9122    5.9324    7.7318 C   0  0  0  0  0  0  0  0  0  0  0  0
   -1.6744    4.9441    8.4034 C   0  0  0  0  0  0  0  0  0  0  0  0
    1.4579   -2.5027   13.1569 H   0  0  0  0  0  0  0  0  0  0  0  0
    3.1180   -1.8983   12.5870 H   0  0  0  0  0  0  0  0  0  0  0  0
    0.4559   -0.3667   12.6254 H   0  0  0  0  0  0  0  0  0  0  0  0
    3.3227    0.5976   12.3480 H   0  0  0  0  0  0  0  0  0  0  0  0
    1.7956   -0.1707    9.9133 H   0  0  0  0  0  0  0  0  0  0  0  0
    3.4887    0.1824   10.1170 H   0  0  0  0  0  0  0  0  0  0  0  0
    3.1610    3.8341    9.9116 H   0  0  0  0  0  0  0  0  0  0  0  0
    4.2072    2.5243   10.3557 H   0  0  0  0  0  0  0  0  0  0  0  0
    2.3435    4.0888   12.0021 H   0  0  0  0  0  0  0  0  0  0  0  0
    3.6428    3.0138   12.5225 H   0  0  0  0  0  0  0  0  0  0  0  0
    1.4684    2.1009   13.3176 H   0  0  0  0  0  0  0  0  0  0  0  0
    0.0978    3.3247   11.6335 H   0  0  0  0  0  0  0  0  0  0  0  0
   -0.3032    1.6081   11.6211 H   0  0  0  0  0  0  0  0  0  0  0  0
    0.3017    1.3835    9.4463 H   0  0  0  0  0  0  0  0  0  0  0  0
    0.8616    4.3758    9.4032 H   0  0  0  0  0  0  0  0  0  0  0  0
    2.7771    2.1057    6.1035 H   0  0  0  0  0  0  0  0  0  0  0  0
    3.2924    3.7233    5.6123 H   0  0  0  0  0  0  0  0  0  0  0  0
    0.8388    4.1828    4.9462 H   0  0  0  0  0  0  0  0  0  0  0  0
    0.5656    2.4604    5.1458 H   0  0  0  0  0  0  0  0  0  0  0  0
    2.2715    1.9422    3.4113 H   0  0  0  0  0  0  0  0  0  0  0  0
    2.7557    3.6380    3.3524 H   0  0  0  0  0  0  0  0  0  0  0  0
    1.4018    3.4167    1.4727 H   0  0  0  0  0  0  0  0  0  0  0  0
    0.3249    4.1997    2.6376 H   0  0  0  0  0  0  0  0  0  0  0  0
   -0.5929    2.6022    0.1408 H   0  0  0  0  0  0  0  0  0  0  0  0
   -3.6214    0.1328    1.2558 H   0  0  0  0  0  0  0  0  0  0  0  0
   -2.6173    0.0740   -0.1948 H   0  0  0  0  0  0  0  0  0  0  0  0
   -4.4942    1.5553   -0.5281 H   0  0  0  0  0  0  0  0  0  0  0  0
   -3.0088    2.4521   -0.6487 H   0  0  0  0  0  0  0  0  0  0  0  0
   -5.4391    4.7483    2.1217 H   0  0  0  0  0  0  0  0  0  0  0  0
   -8.3163    5.2998    2.9417 H   0  0  0  0  0  0  0  0  0  0  0  0
   -9.4657    4.9059    5.0514 H   0  0  0  0  0  0  0  0  0  0  0  0
   -7.5050    1.5614    7.2435 H   0  0  0  0  0  0  0  0  0  0  0  0
   -5.6502   -0.0143    6.9409 H   0  0  0  0  0  0  0  0  0  0  0  0
   -2.3179   -0.8531    5.3571 H   0  0  0  0  0  0  0  0  0  0  0  0
   -3.6697   -1.0811    6.4707 H   0  0  0  0  0  0  0  0  0  0  0  0
   -2.8887    0.5351    6.2985 H   0  0  0  0  0  0  0  0  0  0  0  0
   -4.7780    1.7235    3.1658 H   0  0  0  0  0  0  0  0  0  0  0  0
   -7.4612    5.5061    1.0889 H   0  0  0  0  0  0  0  0  0  0  0  0
   -9.2288    4.2822    0.4392 H   0  0  0  0  0  0  0  0  0  0  0  0
   -8.3865    2.8192    0.9467 H   0  0  0  0  0  0  0  0  0  0  0  0
   -8.9952    2.4967   -1.4084 H   0  0  0  0  0  0  0  0  0  0  0  0
   -6.7257    2.1117   -2.3018 H   0  0  0  0  0  0  0  0  0  0  0  0
   -6.6167    1.9484   -0.5601 H   0  0  0  0  0  0  0  0  0  0  0  0
   -5.6369    4.1615   -2.4027 H   0  0  0  0  0  0  0  0  0  0  0  0
   -4.8427    3.6380   -1.0230 H   0  0  0  0  0  0  0  0  0  0  0  0
   -6.9094    6.1533   -2.3027 H   0  0  0  0  0  0  0  0  0  0  0  0
   -8.0295    6.3316   -0.9675 H   0  0  0  0  0  0  0  0  0  0  0  0
   -7.7808    4.1350   -3.0690 H   0  0  0  0  0  0  0  0  0  0  0  0
  -10.5109    4.6335   -2.0651 H   0  0  0  0  0  0  0  0  0  0  0  0
   -8.8369    6.0245   -4.2512 H   0  0  0  0  0  0  0  0  0  0  0  0
  -10.6802    6.0552   -4.0673 H   0  0  0  0  0  0  0  0  0  0  0  0
   -1.7659    1.9113    9.9976 H   0  0  0  0  0  0  0  0  0  0  0  0
   -4.1140    2.5343   10.1139 H   0  0  0  0  0  0  0  0  0  0  0  0
   -4.7167    6.4238    8.0019 H   0  0  0  0  0  0  0  0  0  0  0  0
   -3.3862    8.0868    6.8201 H   0  0  0  0  0  0  0  0  0  0  0  0
   -0.3924    9.5837    5.3755 H   0  0  0  0  0  0  0  0  0  0  0  0
   -1.6817    9.7016    6.5792 H   0  0  0  0  0  0  0  0  0  0  0  0
   -1.9077    8.7246    5.0764 H   0  0  0  0  0  0  0  0  0  0  0  0
    0.1656    5.8319    7.6396 H   0  0  0  0  0  0  0  0  0  0  0  0
  1  2  2  0  0  0  0
  1 64  1  0  0  0  0
  1 65  1  0  0  0  0
  2 66  1  0  0  0  0
  3  4  1  0  0  0  0
  3  8  1  0  0  0  0
  3  2  1  0  0  0  0
  3 67  1  1  0  0  0
  4  5  1  0  0  0  0
  4 68  1  0  0  0  0
  4 69  1  0  0  0  0
  5  6  1  0  0  0  0
  5 10  1  0  0  0  0
  6  7  1  0  0  0  0
  6 70  1  0  0  0  0
  6 71  1  0  0  0  0
  7  8  1  0  0  0  0
  7 72  1  0  0  0  0
  7 73  1  0  0  0  0
  8  9  1  0  0  0  0
  8 74  1  1  0  0  0
  9 10  1  0  0  0  0
  9 75  1  0  0  0  0
  9 76  1  0  0  0  0
 10 11  1  0  0  0  0
 10 77  1  6  0  0  0
 11 52  1  0  0  0  0
 11 12  1  0  0  0  0
 11 78  1  6  0  0  0
 12 13  1  0  0  0  0
 13 14  2  0  0  0  0
 13 15  1  0  0  0  0
 15 16  1  0  0  0  0
 15 79  1  0  0  0  0
 15 80  1  0  0  0  0
 16 17  1  0  0  0  0
 16 81  1  0  0  0  0
 16 82  1  0  0  0  0
 17 18  1  0  0  0  0
 17 83  1  0  0  0  0
 17 84  1  0  0  0  0
 18 19  1  0  0  0  0
 18 85  1  0  0  0  0
 18 86  1  0  0  0  0
 19 20  1  0  0  0  0
 19 51  1  0  0  0  0
 20 21  2  0  0  0  0
 20 87  1  0  0  0  0
 21 22  1  0  0  0  0
 21 50  1  0  0  0  0
 22 23  1  0  0  0  0
 22 88  1  0  0  0  0
 22 89  1  0  0  0  0
 23 24  1  0  0  0  0
 23 90  1  0  0  0  0
 23 91  1  0  0  0  0
 24 25  2  0  0  0  0
 24 26  1  0  0  0  0
 27 40  1  0  0  0  0
 27 28  1  0  0  0  0
 27 26  1  0  0  0  0
 27 92  1  1  0  0  0
 28 29  1  0  0  0  0
 28 39  2  0  0  0  0
 29 30  2  0  0  0  0
 29 93  1  0  0  0  0
 30 31  1  0  0  0  0
 30 94  1  0  0  0  0
 31 32  2  0  0  0  0
 32 33  1  0  0  0  0
 32 39  1  0  0  0  0
 33 34  2  0  0  0  0
 33 95  1  0  0  0  0
 34 35  1  0  0  0  0
 34 96  1  0  0  0  0
 35 36  1  0  0  0  0
 35 38  2  0  0  0  0
 36 37  1  0  0  0  0
 37 97  1  0  0  0  0
 37 98  1  0  0  0  0
 37 99  1  0  0  0  0
 38 39  1  0  0  0  0
 38100  1  0  0  0  0
 40 41  1  0  0  0  0
 40 45  1  0  0  0  0
 40101  1  1  0  0  0
 41 42  1  0  0  0  0
 41102  1  0  0  0  0
 41103  1  0  0  0  0
 42 43  1  0  0  0  0
 42 47  1  0  0  0  0
 42104  1  6  0  0  0
 43 44  1  0  0  0  0
 43105  1  0  0  0  0
 43106  1  0  0  0  0
 44 45  1  0  0  0  0
 44107  1  0  0  0  0
 44108  1  0  0  0  0
 45 46  1  0  0  0  0
 46 47  1  0  0  0  0
 46109  1  0  0  0  0
 46110  1  0  0  0  0
 47 48  1  0  0  0  0
 47111  1  6  0  0  0
 48 49  2  0  0  0  0
 48112  1  0  0  0  0
 49113  1  0  0  0  0
 49114  1  0  0  0  0
 50 51  2  0  0  0  0
 52 53  1  0  0  0  0
 52 63  2  0  0  0  0
 53 54  2  0  0  0  0
 53115  1  0  0  0  0
 54 55  1  0  0  0  0
 54116  1  0  0  0  0
 55 56  2  0  0  0  0
 56 57  1  0  0  0  0
 56 63  1  0  0  0  0
 57 58  2  0  0  0  0
 57117  1  0  0  0  0
 58 59  1  0  0  0  0
 58118  1  0  0  0  0
 59 60  1  0  0  0  0
 59 62  2  0  0  0  0
 60 61  1  0  0  0  0
 61119  1  0  0  0  0
 61120  1  0  0  0  0
 61121  1  0  0  0  0
 62 63  1  0  0  0  0
 62122  1  0  0  0  0
M  END
>  <Energy>
234.84

$$$$