4839583
  -OEChem-03242010103D

 42 45  0     0  0  0  0  0  0999 V2000
    0.6523   -0.1805    0.1493 O   0  0  0  0  0  0  0  0  0  0  0  0
   -0.9465    3.1363    0.2611 O   0  0  0  0  0  0  0  0  0  0  0  0
    1.7597    3.7318    0.0533 O   0  0  0  0  0  0  0  0  0  0  0  0
   -4.4433   -0.6196   -1.8265 O   0  0  0  0  0  0  0  0  0  0  0  0
   -5.5569   -1.0744    0.6792 O   0  0  0  0  0  0  0  0  0  0  0  0
    1.9856    0.1410    0.0403 C   0  0  0  0  0  0  0  0  0  0  0  0
    2.9137   -0.9234   -0.0372 C   0  0  0  0  0  0  0  0  0  0  0  0
    2.4192    1.4669    0.0053 C   0  0  0  0  0  0  0  0  0  0  0  0
    4.2923   -0.6163   -0.1500 C   0  0  0  0  0  0  0  0  0  0  0  0
   -0.2831    0.8358    0.2375 C   0  0  0  0  0  0  0  0  0  0  0  0
    1.4298    2.5536    0.0849 C   0  0  0  0  0  0  0  0  0  0  0  0
    3.7765    1.7627   -0.1060 C   0  0  0  0  0  0  0  0  0  0  0  0
   -1.6649    0.3351    0.3494 C   0  0  0  0  0  0  0  0  0  0  0  0
    0.0110    2.1471    0.2047 C   0  0  0  0  0  0  0  0  0  0  0  0
    4.7045    0.7251   -0.1827 C   0  0  0  0  0  0  0  0  0  0  0  0
    2.5315   -2.2821   -0.0075 C   0  0  0  0  0  0  0  0  0  0  0  0
    5.2333   -1.6564   -0.2283 C   0  0  0  0  0  0  0  0  0  0  0  0
   -2.4141    0.0898   -0.8016 C   0  0  0  0  0  0  0  0  0  0  0  0
   -2.2246    0.1070    1.6070 C   0  0  0  0  0  0  0  0  0  0  0  0
    3.4800   -3.3029   -0.0864 C   0  0  0  0  0  0  0  0  0  0  0  0
    4.8294   -2.9902   -0.1968 C   0  0  0  0  0  0  0  0  0  0  0  0
   -3.7222   -0.3832   -0.6953 C   0  0  0  0  0  0  0  0  0  0  0  0
   -4.2811   -0.6111    0.5624 C   0  0  0  0  0  0  0  0  0  0  0  0
   -3.5324   -0.3658    1.7134 C   0  0  0  0  0  0  0  0  0  0  0  0
   -5.2174    0.4628   -2.3396 C   0  0  0  0  0  0  0  0  0  0  0  0
   -5.7323   -2.4894    0.7102 C   0  0  0  0  0  0  0  0  0  0  0  0
    4.1317    2.7891   -0.1348 H   0  0  0  0  0  0  0  0  0  0  0  0
    5.7601    0.9762   -0.2692 H   0  0  0  0  0  0  0  0  0  0  0  0
    1.4838   -2.5632    0.0780 H   0  0  0  0  0  0  0  0  0  0  0  0
    6.2953   -1.4352   -0.3152 H   0  0  0  0  0  0  0  0  0  0  0  0
   -1.9847    0.2637   -1.7859 H   0  0  0  0  0  0  0  0  0  0  0  0
   -1.6531    0.2931    2.5131 H   0  0  0  0  0  0  0  0  0  0  0  0
    3.1625   -4.3413   -0.0616 H   0  0  0  0  0  0  0  0  0  0  0  0
    5.5688   -3.7832   -0.2585 H   0  0  0  0  0  0  0  0  0  0  0  0
   -3.9618   -0.5407    2.6962 H   0  0  0  0  0  0  0  0  0  0  0  0
   -0.4857    3.9918    0.2132 H   0  0  0  0  0  0  0  0  0  0  0  0
   -5.7374    0.1169   -3.2371 H   0  0  0  0  0  0  0  0  0  0  0  0
   -4.5697    1.3022   -2.6118 H   0  0  0  0  0  0  0  0  0  0  0  0
   -5.9627    0.7856   -1.6058 H   0  0  0  0  0  0  0  0  0  0  0  0
   -6.8015   -2.7002    0.7984 H   0  0  0  0  0  0  0  0  0  0  0  0
   -5.2178   -2.9207    1.5748 H   0  0  0  0  0  0  0  0  0  0  0  0
   -5.3610   -2.9443   -0.2137 H   0  0  0  0  0  0  0  0  0  0  0  0
  1  6  1  0  0  0  0
  1 10  1  0  0  0  0
  2 14  1  0  0  0  0
  2 36  1  0  0  0  0
  3 11  2  0  0  0  0
  4 22  1  0  0  0  0
  4 25  1  0  0  0  0
  5 23  1  0  0  0  0
  5 26  1  0  0  0  0
  6  7  1  0  0  0  0
  6  8  2  0  0  0  0
  7  9  1  0  0  0  0
  7 16  2  0  0  0  0
  8 11  1  0  0  0  0
  8 12  1  0  0  0  0
  9 15  1  0  0  0  0
  9 17  2  0  0  0  0
 10 13  1  0  0  0  0
 10 14  2  0  0  0  0
 11 14  1  0  0  0  0
 12 15  2  0  0  0  0
 12 27  1  0  0  0  0
 13 18  2  0  0  0  0
 13 19  1  0  0  0  0
 15 28  1  0  0  0  0
 16 20  1  0  0  0  0
 16 29  1  0  0  0  0
 17 21  1  0  0  0  0
 17 30  1  0  0  0  0
 18 22  1  0  0  0  0
 18 31  1  0  0  0  0
 19 24  2  0  0  0  0
 19 32  1  0  0  0  0
 20 21  2  0  0  0  0
 20 33  1  0  0  0  0
 21 34  1  0  0  0  0
 22 23  2  0  0  0  0
 23 24  1  0  0  0  0
 24 35  1  0  0  0  0
 25 37  1  0  0  0  0
 25 38  1  0  0  0  0
 25 39  1  0  0  0  0
 26 40  1  0  0  0  0
 26 41  1  0  0  0  0
 26 42  1  0  0  0  0
M  END
> <PUBCHEM_COMPOUND_CID>
4839583

> <PUBCHEM_CONFORMER_RMSD>
0.6

> <PUBCHEM_CONFORMER_DIVERSEORDER>
1
8
10
2
6
12
7
3
11
9
4
5

> <PUBCHEM_MMFF94_PARTIAL_CHARGES>
34
1 -0.16
10 0.05
11 0.47
12 -0.15
13 0.03
14 0.09
15 -0.15
16 -0.15
17 -0.15
18 -0.15
19 -0.15
2 -0.53
20 -0.15
21 -0.15
22 0.08
23 0.08
24 -0.15
25 0.28
26 0.28
27 0.15
28 0.15
29 0.15
3 -0.57
30 0.15
31 0.15
32 0.15
33 0.15
34 0.15
35 0.15
36 0.45
4 -0.36
5 -0.36
6 0.08
8 0.09

> <PUBCHEM_EFFECTIVE_ROTOR_COUNT>
3

> <PUBCHEM_PHARMACOPHORE_FEATURES>
9
1 1 acceptor
1 2 donor
1 3 acceptor
1 4 acceptor
1 5 acceptor
6 1 6 8 10 11 14 rings
6 13 18 19 22 23 24 rings
6 6 7 8 9 12 15 rings
6 7 9 16 17 20 21 rings

> <PUBCHEM_HEAVY_ATOM_COUNT>
26

> <PUBCHEM_ATOM_DEF_STEREO_COUNT>
0

> <PUBCHEM_ATOM_UDEF_STEREO_COUNT>
0

> <PUBCHEM_BOND_DEF_STEREO_COUNT>
0

> <PUBCHEM_BOND_UDEF_STEREO_COUNT>
0

> <PUBCHEM_ISOTOPIC_ATOM_COUNT>
0

> <PUBCHEM_COMPONENT_COUNT>
1

> <PUBCHEM_CACTVS_TAUTO_COUNT>
2

> <PUBCHEM_CONFORMER_ID>
0049D89F00000001

> <PUBCHEM_MMFF94_ENERGY>
103.148

> <PUBCHEM_FEATURE_SELFOVERLAP>
45.729

> <PUBCHEM_SHAPE_FINGERPRINT>
10319926 262 13973970878569411494
10411042 1 18338522915965723242
10622 236 17701792549317840599
11049842 53 15287012015477919425
11796584 16 17821999900375878643
12107183 9 18126020282174776377
12236239 1 17703237307812313481
12422481 6 17059500603990141774
12553582 1 18412831261481221838
12596602 18 16845286151254685938
12633257 1 15482669091696420923
13009979 54 17846230907822361736
13140716 1 18053664965167163056
13533116 47 18271532000014559147
13544653 18 18335990783119429516
13690498 29 17908444467410649838
13782708 43 17676770950403769347
13911987 19 17901129699850488612
13955234 65 18126848419971983520
14767858 380 18263947505077931510
15537594 2 18201722902596592486
17349148 13 17560802151833599631
17357779 13 18260827072885856380
17492 89 18194967344917356210
1813 80 18200329739838851804
18222031 100 18201428152213456142
200 152 18343584044675184985
20028762 73 18343587313483907670
20511986 3 17560788979005794393
20645477 70 18261956344420933304
21033650 10 16443346416898650349
21267235 1 18341341015807288238
221490 88 18337393730303176676
22393880 68 17894904123110943963
23557571 272 17313099800204697221
23559900 14 18334289877064595144
25222932 49 18269557319770179303
314194 84 18272086119098643983
3421961 26 18411984684571975840
345986 75 17846786186832655136
34797466 226 16805895090231841591
3882209 13 17107031250382701211
46194498 28 17604714520217160221
463206 1 18411982494123226654
5104073 3 18271242695544492416
5283173 99 17968369031744523741
5309563 4 18410862027349916082
59682541 52 18268122380561246677
602551 16 15195562446160478821
7970288 3 18338802204245690650

> <PUBCHEM_SHAPE_MULTIPOLES>
505.72
12.88
3.52
1.25
7.8
0.56
0.37
-9.43
2.01
-3.79
-0.21
2.64
-0.07
0.89

> <PUBCHEM_SHAPE_SELFOVERLAP>
1132.142

> <PUBCHEM_SHAPE_VOLUME>
268.2

> <PUBCHEM_COORDINATE_TYPE>
2
5
10

$$$$