11368874
  -OEChem-03242010093D

 35 36  0     0  0  0  0  0  0999 V2000
    4.1176    2.2182   -0.3067 O   0  0  0  0  0  0  0  0  0  0  0  0
    3.6050   -2.4767    0.3864 O   0  0  0  0  0  0  0  0  0  0  0  0
   -5.2178    1.7800    1.1024 O   0  0  0  0  0  0  0  0  0  0  0  0
    1.1234    0.1677    0.0273 C   0  0  0  0  0  0  0  0  0  0  0  0
    1.6680   -1.0935    0.2059 C   0  0  0  0  0  0  0  0  0  0  0  0
    1.9274    1.2826   -0.1452 C   0  0  0  0  0  0  0  0  0  0  0  0
    3.3143    1.1323   -0.1387 C   0  0  0  0  0  0  0  0  0  0  0  0
    3.0548   -1.2440    0.2122 C   0  0  0  0  0  0  0  0  0  0  0  0
   -0.3416    0.3266    0.0205 C   0  0  0  0  0  0  0  0  0  0  0  0
   -2.6796   -0.5145   -0.1943 C   0  0  0  0  0  0  0  0  0  0  0  0
    3.8780   -0.1311    0.0400 C   0  0  0  0  0  0  0  0  0  0  0  0
   -1.2331   -0.6669   -0.2065 C   0  0  0  0  0  0  0  0  0  0  0  0
   -3.2615    0.5741    0.4553 C   0  0  0  0  0  0  0  0  0  0  0  0
   -3.4850   -1.4580   -0.8323 C   0  0  0  0  0  0  0  0  0  0  0  0
   -4.6488    0.7192    0.4670 C   0  0  0  0  0  0  0  0  0  0  0  0
   -4.8721   -1.3130   -0.8205 C   0  0  0  0  0  0  0  0  0  0  0  0
   -5.4540   -0.2244   -0.1710 C   0  0  0  0  0  0  0  0  0  0  0  0
    3.4754    3.4797   -0.4842 C   0  0  0  0  0  0  0  0  0  0  0  0
    5.0294   -2.5584    0.3823 C   0  0  0  0  0  0  0  0  0  0  0  0
    1.0618   -1.9800    0.3656 H   0  0  0  0  0  0  0  0  0  0  0  0
    1.4397    2.2419   -0.2826 H   0  0  0  0  0  0  0  0  0  0  0  0
   -0.6797    1.3431    0.2023 H   0  0  0  0  0  0  0  0  0  0  0  0
    4.9618   -0.1829    0.0354 H   0  0  0  0  0  0  0  0  0  0  0  0
   -0.8911   -1.6716   -0.4396 H   0  0  0  0  0  0  0  0  0  0  0  0
   -2.6722    1.3189    0.9829 H   0  0  0  0  0  0  0  0  0  0  0  0
   -3.0501   -2.3126   -1.3452 H   0  0  0  0  0  0  0  0  0  0  0  0
   -5.4992   -2.0474   -1.3175 H   0  0  0  0  0  0  0  0  0  0  0  0
   -6.5360   -0.1232   -0.1690 H   0  0  0  0  0  0  0  0  0  0  0  0
    2.8949    3.7642    0.4001 H   0  0  0  0  0  0  0  0  0  0  0  0
    2.8757    3.5011   -1.4005 H   0  0  0  0  0  0  0  0  0  0  0  0
    4.2645    4.2297   -0.6022 H   0  0  0  0  0  0  0  0  0  0  0  0
    5.4470   -2.2604   -0.5854 H   0  0  0  0  0  0  0  0  0  0  0  0
    5.2930   -3.6104    0.5333 H   0  0  0  0  0  0  0  0  0  0  0  0
    5.4673   -1.9970    1.2146 H   0  0  0  0  0  0  0  0  0  0  0  0
   -6.1843    1.7210    1.0105 H   0  0  0  0  0  0  0  0  0  0  0  0
  1  7  1  0  0  0  0
  1 18  1  0  0  0  0
  2  8  1  0  0  0  0
  2 19  1  0  0  0  0
  3 15  1  0  0  0  0
  3 35  1  0  0  0  0
  4  5  2  0  0  0  0
  4  6  1  0  0  0  0
  4  9  1  0  0  0  0
  5  8  1  0  0  0  0
  5 20  1  0  0  0  0
  6  7  2  0  0  0  0
  6 21  1  0  0  0  0
  7 11  1  0  0  0  0
  8 11  2  0  0  0  0
  9 12  2  0  0  0  0
  9 22  1  0  0  0  0
 10 12  1  0  0  0  0
 10 13  2  0  0  0  0
 10 14  1  0  0  0  0
 11 23  1  0  0  0  0
 12 24  1  0  0  0  0
 13 15  1  0  0  0  0
 13 25  1  0  0  0  0
 14 16  2  0  0  0  0
 14 26  1  0  0  0  0
 15 17  2  0  0  0  0
 16 17  1  0  0  0  0
 16 27  1  0  0  0  0
 17 28  1  0  0  0  0
 18 29  1  0  0  0  0
 18 30  1  0  0  0  0
 18 31  1  0  0  0  0
 19 32  1  0  0  0  0
 19 33  1  0  0  0  0
 19 34  1  0  0  0  0
M  END
> <PUBCHEM_COMPOUND_CID>
11368874

> <PUBCHEM_CONFORMER_RMSD>
0.6

> <PUBCHEM_CONFORMER_DIVERSEORDER>
9
4
12
1
11
7
8
5
3
10
6
2

> <PUBCHEM_MMFF94_PARTIAL_CHARGES>
29
1 -0.36
10 0.03
11 -0.15
12 -0.18
13 -0.15
14 -0.15
15 0.08
16 -0.15
17 -0.15
18 0.28
19 0.28
2 -0.36
20 0.15
21 0.15
22 0.15
23 0.15
24 0.15
25 0.15
26 0.15
27 0.15
28 0.15
3 -0.53
35 0.45
4 0.03
5 -0.15
6 -0.15
7 0.08
8 0.08
9 -0.18

> <PUBCHEM_EFFECTIVE_ROTOR_COUNT>
4

> <PUBCHEM_PHARMACOPHORE_FEATURES>
5
1 1 acceptor
1 2 acceptor
1 3 donor
6 10 13 14 15 16 17 rings
6 4 5 6 7 8 11 rings

> <PUBCHEM_HEAVY_ATOM_COUNT>
19

> <PUBCHEM_ATOM_DEF_STEREO_COUNT>
0

> <PUBCHEM_ATOM_UDEF_STEREO_COUNT>
0

> <PUBCHEM_BOND_DEF_STEREO_COUNT>
1

> <PUBCHEM_BOND_UDEF_STEREO_COUNT>
0

> <PUBCHEM_ISOTOPIC_ATOM_COUNT>
0

> <PUBCHEM_COMPONENT_COUNT>
1

> <PUBCHEM_CACTVS_TAUTO_COUNT>
3

> <PUBCHEM_CONFORMER_ID>
00AD79AA00000009

> <PUBCHEM_MMFF94_ENERGY>
74.4438

> <PUBCHEM_FEATURE_SELFOVERLAP>
25.372

> <PUBCHEM_SHAPE_FINGERPRINT>
10411042 1 18192427469036461570
10595046 47 18341330110605417591
10912923 1 18202004347983057923
10937287 8 17541387173311792892
11405975 8 18411139125807485443
12107183 9 18125162624091488001
12236239 1 18202845448339587794
12616971 3 18412829062542252035
12730499 353 18189907581067763994
12916754 54 18408599267159194327
13073987 5 18413108390066891811
13167823 11 18413386544918234231
13533116 47 18340482361418486883
13590594 115 18190465956923830296
13675066 3 17821451257480740013
13785724 45 17838343977794424414
13955234 65 18336262431590639112
14528608 73 18340207517349035700
14739800 52 17774428512362848088
15042514 8 17688868636673938810
15196674 1 18412262839765735215
15238133 3 17489592203803712889
15250474 111 18200581596895929351
17818456 19 17844814676605636633
17834072 33 18340767130423805335
17844677 252 18409737244424324337
18186145 218 17458061564567281075
18335252 98 18117560841817106419
18681886 176 17917710232259754262
20281475 54 18341886416017864479
20612939 158 18335419071205910142
20645477 70 18334852818681477670
21033648 29 16878213217349883455
21065198 48 18341895208063631319
21267235 1 18411706452069077282
21709351 56 18339072692653035439
2255824 54 18409448090162470778
23402539 116 17846207818648000565
23402655 69 18342459282776316276
23532345 1 18262801886195594776
23559900 14 18342731910331634226
245318 6 16956483266317361221
268830 7 18408317787755640853
29717793 49 18273209781728303055
3004659 81 18202286879263416446
34797466 226 16414644915570098177
4073 2 18114467871714026898
4214541 1 18342174441162326427
474 4 18116152366535643532
5104073 3 18342177773872605467
5281201 14 18113331990355598220
543358 83 18412267237690946560
559249 180 18271520880550334439
573450 72 18131345294139243923
633830 44 18333165064169652251
67856867 119 18342451573663558416
77188 2 18264485084611944860
77779 3 18411418427709962151
8272917 22 18410858772075565382
9709674 26 18334577979139186595
9841814 1 18040704837037366890
9971528 1 17967532384751998220
9981440 41 17473536327667142865

> <PUBCHEM_SHAPE_MULTIPOLES>
373.4
13.17
2.81
0.79
8.99
1.12
0
-0.68
-0.5
-4.92
0.11
0.56
0.04
-2.03

> <PUBCHEM_SHAPE_SELFOVERLAP>
796.9

> <PUBCHEM_SHAPE_VOLUME>
208.8

> <PUBCHEM_COORDINATE_TYPE>
2
5
10

$$$$