138
 OpenBabel03292022003D

 90 92  0  0  1  0  0  0  0  0999 V2000
   -2.5708   -3.6429   -4.5532 C   0  0  0  0  0  0  0  0  0  0  0  0
   -2.5145   -3.0026   -5.9297 C   0  0  0  0  0  0  0  0  0  0  0  0
   -1.1386   -2.7766   -6.2525 O   0  0  0  0  0  0  0  0  0  0  0  0
   -0.6173   -1.6160   -5.7583 C   0  0  0  0  0  0  0  0  0  0  0  0
   -1.2883   -0.6646   -5.3701 O   0  0  0  0  0  0  0  0  0  0  0  0
    0.8397   -1.6634   -5.6397 C   0  0  0  0  0  0  0  0  0  0  0  0
    1.5764   -0.6494   -5.0543 C   0  0  0  0  0  0  0  0  0  0  0  0
    3.2365   -1.0501   -5.0283 S   0  0  0  0  0  0  0  0  0  0  0  0
    2.8814   -2.5423   -5.8117 C   0  0  0  0  0  0  0  0  0  0  0  0
    4.0118   -3.4619   -6.2245 C   0  0  1  0  0  0  0  0  0  0  0  0
    3.6043   -4.8427   -6.0212 N   0  0  0  0  0  0  0  0  0  0  0  0
    4.2686   -5.6920   -5.1695 C   0  0  0  0  0  0  0  0  0  0  0  0
    5.2248   -5.3477   -4.4798 O   0  0  0  0  0  0  0  0  0  0  0  0
    3.7742   -7.0721   -5.1973 C   0  0  0  0  0  0  0  0  0  0  0  0
    4.3051   -8.0886   -4.4248 C   0  0  0  0  0  0  0  0  0  0  0  0
    3.6152   -9.5915   -4.8582 S   0  0  0  0  0  0  0  0  0  0  0  0
    2.6709   -8.7994   -6.0628 C   0  0  0  0  0  0  0  0  0  0  0  0
    1.8792   -9.6250   -7.0607 C   0  0  1  0  0  0  0  0  0  0  0  0
    0.6130   -9.9890   -6.4452 N   0  0  0  0  0  0  0  0  0  0  0  0
    0.2567  -11.3018   -6.2345 C   0  0  0  0  0  0  0  0  0  0  0  0
    0.9747  -12.2524   -6.5098 O   0  0  0  0  0  0  0  0  0  0  0  0
   -1.1010  -11.4650   -5.7006 C   0  0  0  0  0  0  0  0  0  0  0  0
   -1.6739  -12.6955   -5.4357 C   0  0  0  0  0  0  0  0  0  0  0  0
   -3.3189  -12.5060   -5.0185 S   0  0  0  0  0  0  0  0  0  0  0  0
   -3.1710  -10.7999   -5.2255 C   0  0  0  0  0  0  0  0  0  0  0  0
   -4.4131   -9.9197   -5.2229 C   0  0  1  0  0  0  0  0  0  0  0  0
   -4.7432   -9.5672   -3.8473 N   0  0  0  0  0  0  0  0  0  0  0  0
   -5.5949  -10.3480   -3.1202 C   0  0  0  0  0  0  0  0  0  0  0  0
   -6.1680  -11.3215   -3.5833 O   0  0  0  0  0  0  0  0  0  0  0  0
   -5.7228   -9.8940   -1.8510 O   0  0  0  0  0  0  0  0  0  0  0  0
   -6.6179  -10.5935   -0.9356 C   0  0  0  0  0  0  0  0  0  0  0  0
   -6.0718  -11.9875   -0.5958 C   0  0  0  0  0  0  0  0  0  0  0  0
   -6.6503   -9.7612    0.3566 C   0  0  0  0  0  0  0  0  0  0  0  0
   -8.0559  -10.6622   -1.4753 C   0  0  0  0  0  0  0  0  0  0  0  0
   -4.2190   -8.6758   -6.1358 C   0  0  0  0  0  0  0  0  0  0  0  0
   -3.9527   -9.0854   -7.5969 C   0  0  0  0  0  0  0  0  0  0  0  0
   -5.4449   -7.7556   -6.1200 C   0  0  0  0  0  0  0  0  0  0  0  0
   -1.9467  -10.3745   -5.4863 N   0  0  0  0  0  0  0  0  0  0  0  0
    1.6756   -8.8615   -8.4006 C   0  0  0  0  0  0  0  0  0  0  0  0
    3.0189   -8.5290   -9.0729 C   0  0  0  0  0  0  0  0  0  0  0  0
    0.8294   -9.6624   -9.3978 C   0  0  0  0  0  0  0  0  0  0  0  0
    2.7687   -7.4816   -6.0749 N   0  0  0  0  0  0  0  0  0  0  0  0
    4.4573   -3.1796   -7.6859 C   0  0  0  0  0  0  0  0  0  0  0  0
    5.6497   -4.0526   -8.0903 C   0  0  0  0  0  0  0  0  0  0  0  0
    3.3392   -3.3345   -8.7233 C   0  0  0  0  0  0  0  0  0  0  0  0
    1.6023   -2.7575   -6.0557 N   0  0  0  0  0  0  0  0  0  0  0  0
   -3.5985   -3.8628   -4.2568 H   0  0  0  0  0  0  0  0  0  0  0  0
   -2.1180   -2.9887   -3.8002 H   0  0  0  0  0  0  0  0  0  0  0  0
   -1.9896   -4.5726   -4.5458 H   0  0  0  0  0  0  0  0  0  0  0  0
   -3.1057   -2.0808   -5.9702 H   0  0  0  0  0  0  0  0  0  0  0  0
   -2.9262   -3.6866   -6.6789 H   0  0  0  0  0  0  0  0  0  0  0  0
    1.2107    0.2802   -4.6396 H   0  0  0  0  0  0  0  0  0  0  0  0
    4.8732   -3.2632   -5.5737 H   0  0  0  0  0  0  0  0  0  0  0  0
    2.7648   -5.1911   -6.4747 H   0  0  0  0  0  0  0  0  0  0  0  0
    5.0838   -8.0186   -3.6776 H   0  0  0  0  0  0  0  0  0  0  0  0
    2.4458  -10.5382   -7.2845 H   0  0  0  0  0  0  0  0  0  0  0  0
   -0.0414   -9.2728   -6.1493 H   0  0  0  0  0  0  0  0  0  0  0  0
   -1.2211  -13.6735   -5.5183 H   0  0  0  0  0  0  0  0  0  0  0  0
   -5.2503  -10.4972   -5.6380 H   0  0  0  0  0  0  0  0  0  0  0  0
   -4.1840   -8.8972   -3.3355 H   0  0  0  0  0  0  0  0  0  0  0  0
   -5.0926  -11.9132   -0.1089 H   0  0  0  0  0  0  0  0  0  0  0  0
   -5.9271  -12.6056   -1.4862 H   0  0  0  0  0  0  0  0  0  0  0  0
   -6.7481  -12.5260    0.0776 H   0  0  0  0  0  0  0  0  0  0  0  0
   -5.6449   -9.6358    0.7749 H   0  0  0  0  0  0  0  0  0  0  0  0
   -7.2841  -10.2289    1.1201 H   0  0  0  0  0  0  0  0  0  0  0  0
   -7.0364   -8.7532    0.1643 H   0  0  0  0  0  0  0  0  0  0  0  0
   -8.1400  -11.2676   -2.3811 H   0  0  0  0  0  0  0  0  0  0  0  0
   -8.4202   -9.6613   -1.7324 H   0  0  0  0  0  0  0  0  0  0  0  0
   -8.7363  -11.1021   -0.7379 H   0  0  0  0  0  0  0  0  0  0  0  0
   -3.3597   -8.0921   -5.7794 H   0  0  0  0  0  0  0  0  0  0  0  0
   -4.7967   -9.6513   -8.0071 H   0  0  0  0  0  0  0  0  0  0  0  0
   -3.0572   -9.7044   -7.7010 H   0  0  0  0  0  0  0  0  0  0  0  0
   -3.8010   -8.2014   -8.2255 H   0  0  0  0  0  0  0  0  0  0  0  0
   -6.3360   -8.2774   -6.4859 H   0  0  0  0  0  0  0  0  0  0  0  0
   -5.2777   -6.8861   -6.7663 H   0  0  0  0  0  0  0  0  0  0  0  0
   -5.6543   -7.3800   -5.1145 H   0  0  0  0  0  0  0  0  0  0  0  0
    1.1480   -7.9185   -8.2029 H   0  0  0  0  0  0  0  0  0  0  0  0
    3.5748   -9.4415   -9.3144 H   0  0  0  0  0  0  0  0  0  0  0  0
    3.6586   -7.9072   -8.4403 H   0  0  0  0  0  0  0  0  0  0  0  0
    2.8583   -7.9739  -10.0033 H   0  0  0  0  0  0  0  0  0  0  0  0
    1.3074  -10.6159   -9.6469 H   0  0  0  0  0  0  0  0  0  0  0  0
    0.7010   -9.0987  -10.3289 H   0  0  0  0  0  0  0  0  0  0  0  0
   -0.1699   -9.8705   -9.0044 H   0  0  0  0  0  0  0  0  0  0  0  0
    4.7935   -2.1345   -7.7342 H   0  0  0  0  0  0  0  0  0  0  0  0
    5.3820   -5.1141   -8.1183 H   0  0  0  0  0  0  0  0  0  0  0  0
    6.4830   -3.9257   -7.3918 H   0  0  0  0  0  0  0  0  0  0  0  0
    6.0069   -3.7748   -9.0881 H   0  0  0  0  0  0  0  0  0  0  0  0
    2.9456   -4.3560   -8.7448 H   0  0  0  0  0  0  0  0  0  0  0  0
    3.7126   -3.0972   -9.7260 H   0  0  0  0  0  0  0  0  0  0  0  0
    2.5092   -2.6495   -8.5285 H   0  0  0  0  0  0  0  0  0  0  0  0
  1  2  1  0  0  0  0
  1 47  1  0  0  0  0
  1 48  1  0  0  0  0
  1 49  1  0  0  0  0
  2  3  1  0  0  0  0
  2 50  1  0  0  0  0
  2 51  1  0  0  0  0
  3  4  1  0  0  0  0
  4  5  2  0  0  0  0
  4  6  1  0  0  0  0
  6  7  2  0  0  0  0
  6 46  1  0  0  0  0
  7  8  1  0  0  0  0
  7 52  1  0  0  0  0
  8  9  1  0  0  0  0
  9 10  1  0  0  0  0
  9 46  2  0  0  0  0
 10 11  1  0  0  0  0
 10 43  1  0  0  0  0
 10 53  1  1  0  0  0
 11 12  1  0  0  0  0
 11 54  1  0  0  0  0
 12 13  2  0  0  0  0
 12 14  1  0  0  0  0
 14 15  2  0  0  0  0
 14 42  1  0  0  0  0
 15 16  1  0  0  0  0
 15 55  1  0  0  0  0
 16 17  1  0  0  0  0
 17 18  1  0  0  0  0
 17 42  2  0  0  0  0
 18 19  1  0  0  0  0
 18 39  1  0  0  0  0
 18 56  1  6  0  0  0
 19 20  1  0  0  0  0
 19 57  1  0  0  0  0
 20 21  2  0  0  0  0
 20 22  1  0  0  0  0
 22 23  2  0  0  0  0
 22 38  1  0  0  0  0
 23 24  1  0  0  0  0
 23 58  1  0  0  0  0
 24 25  1  0  0  0  0
 25 26  1  0  0  0  0
 25 38  2  0  0  0  0
 26 27  1  0  0  0  0
 26 35  1  0  0  0  0
 26 59  1  6  0  0  0
 27 28  1  0  0  0  0
 27 60  1  0  0  0  0
 28 29  2  0  0  0  0
 28 30  1  0  0  0  0
 30 31  1  0  0  0  0
 31 32  1  0  0  0  0
 31 33  1  0  0  0  0
 31 34  1  0  0  0  0
 32 61  1  0  0  0  0
 32 62  1  0  0  0  0
 32 63  1  0  0  0  0
 33 64  1  0  0  0  0
 33 65  1  0  0  0  0
 33 66  1  0  0  0  0
 34 67  1  0  0  0  0
 34 68  1  0  0  0  0
 34 69  1  0  0  0  0
 35 36  1  0  0  0  0
 35 37  1  0  0  0  0
 35 70  1  0  0  0  0
 36 71  1  0  0  0  0
 36 72  1  0  0  0  0
 36 73  1  0  0  0  0
 37 74  1  0  0  0  0
 37 75  1  0  0  0  0
 37 76  1  0  0  0  0
 39 40  1  0  0  0  0
 39 41  1  0  0  0  0
 39 77  1  0  0  0  0
 40 78  1  0  0  0  0
 40 79  1  0  0  0  0
 40 80  1  0  0  0  0
 41 81  1  0  0  0  0
 41 82  1  0  0  0  0
 41 83  1  0  0  0  0
 43 44  1  0  0  0  0
 43 45  1  0  0  0  0
 43 84  1  0  0  0  0
 44 85  1  0  0  0  0
 44 86  1  0  0  0  0
 44 87  1  0  0  0  0
 45 88  1  0  0  0  0
 45 89  1  0  0  0  0
 45 90  1  0  0  0  0
M  END
>  <Energy>
16.5664

$$$$