97548
  -OEChem-03242010103D

 37 40  0     0  0  0  0  0  0999 V2000
   -0.2050    0.0784    0.0244 O   0  0  0  0  0  0  0  0  0  0  0  0
   -1.3012   -3.8318   -0.1891 O   0  0  0  0  0  0  0  0  0  0  0  0
    6.0636    0.8780    0.1570 O   0  0  0  0  0  0  0  0  0  0  0  0
   -1.5433   -0.2438   -0.0069 C   0  0  0  0  0  0  0  0  0  0  0  0
   -2.4761    0.8180    0.0414 C   0  0  0  0  0  0  0  0  0  0  0  0
   -1.9772   -1.5689   -0.0820 C   0  0  0  0  0  0  0  0  0  0  0  0
   -3.8588    0.5096    0.0108 C   0  0  0  0  0  0  0  0  0  0  0  0
    0.7351   -0.9370   -0.0257 C   0  0  0  0  0  0  0  0  0  0  0  0
   -3.3381   -1.8661   -0.1121 C   0  0  0  0  0  0  0  0  0  0  0  0
   -4.2704   -0.8305   -0.0660 C   0  0  0  0  0  0  0  0  0  0  0  0
   -0.9822   -2.6523   -0.1270 C   0  0  0  0  0  0  0  0  0  0  0  0
   -2.0949    2.1749    0.1193 C   0  0  0  0  0  0  0  0  0  0  0  0
    0.4340   -2.2424   -0.0914 C   0  0  0  0  0  0  0  0  0  0  0  0
    2.1325   -0.4614    0.0218 C   0  0  0  0  0  0  0  0  0  0  0  0
   -4.8045    1.5472    0.0581 C   0  0  0  0  0  0  0  0  0  0  0  0
   -3.0482    3.1932    0.1656 C   0  0  0  0  0  0  0  0  0  0  0  0
   -4.4015    2.8794    0.1350 C   0  0  0  0  0  0  0  0  0  0  0  0
    3.1238   -1.2523    0.6082 C   0  0  0  0  0  0  0  0  0  0  0  0
    2.4695    0.7820   -0.5191 C   0  0  0  0  0  0  0  0  0  0  0  0
    4.4435   -0.8024    0.6535 C   0  0  0  0  0  0  0  0  0  0  0  0
    3.7891    1.2316   -0.4738 C   0  0  0  0  0  0  0  0  0  0  0  0
    4.7761    0.4394    0.1126 C   0  0  0  0  0  0  0  0  0  0  0  0
    6.3342    2.1570   -0.4147 C   0  0  0  0  0  0  0  0  0  0  0  0
   -3.6925   -2.8914   -0.1704 H   0  0  0  0  0  0  0  0  0  0  0  0
   -5.3291   -1.0819   -0.0902 H   0  0  0  0  0  0  0  0  0  0  0  0
    1.1710   -3.0352   -0.1429 H   0  0  0  0  0  0  0  0  0  0  0  0
   -1.0441    2.4567    0.1450 H   0  0  0  0  0  0  0  0  0  0  0  0
   -5.8697    1.3252    0.0355 H   0  0  0  0  0  0  0  0  0  0  0  0
   -2.7314    4.2303    0.2255 H   0  0  0  0  0  0  0  0  0  0  0  0
   -5.1447    3.6705    0.1710 H   0  0  0  0  0  0  0  0  0  0  0  0
    2.9019   -2.2155    1.0599 H   0  0  0  0  0  0  0  0  0  0  0  0
    1.7211    1.4158   -0.9890 H   0  0  0  0  0  0  0  0  0  0  0  0
    5.2075   -1.4215    1.1157 H   0  0  0  0  0  0  0  0  0  0  0  0
    3.9784    2.2047   -0.9141 H   0  0  0  0  0  0  0  0  0  0  0  0
    5.8053    2.9555    0.1168 H   0  0  0  0  0  0  0  0  0  0  0  0
    6.1296    2.1682   -1.4906 H   0  0  0  0  0  0  0  0  0  0  0  0
    7.4056    2.3462   -0.2912 H   0  0  0  0  0  0  0  0  0  0  0  0
  1  4  1  0  0  0  0
  1  8  1  0  0  0  0
  2 11  2  0  0  0  0
  3 22  1  0  0  0  0
  3 23  1  0  0  0  0
  4  5  1  0  0  0  0
  4  6  2  0  0  0  0
  5  7  1  0  0  0  0
  5 12  2  0  0  0  0
  6  9  1  0  0  0  0
  6 11  1  0  0  0  0
  7 10  1  0  0  0  0
  7 15  2  0  0  0  0
  8 13  2  0  0  0  0
  8 14  1  0  0  0  0
  9 10  2  0  0  0  0
  9 24  1  0  0  0  0
 10 25  1  0  0  0  0
 11 13  1  0  0  0  0
 12 16  1  0  0  0  0
 12 27  1  0  0  0  0
 13 26  1  0  0  0  0
 14 18  2  0  0  0  0
 14 19  1  0  0  0  0
 15 17  1  0  0  0  0
 15 28  1  0  0  0  0
 16 17  2  0  0  0  0
 16 29  1  0  0  0  0
 17 30  1  0  0  0  0
 18 20  1  0  0  0  0
 18 31  1  0  0  0  0
 19 21  2  0  0  0  0
 19 32  1  0  0  0  0
 20 22  2  0  0  0  0
 20 33  1  0  0  0  0
 21 22  1  0  0  0  0
 21 34  1  0  0  0  0
 23 35  1  0  0  0  0
 23 36  1  0  0  0  0
 23 37  1  0  0  0  0
M  END
> <PUBCHEM_COMPOUND_CID>
97548

> <PUBCHEM_CONFORMER_RMSD>
0.6

> <PUBCHEM_CONFORMER_DIVERSEORDER>
1
2
3

> <PUBCHEM_MMFF94_PARTIAL_CHARGES>
32
1 -0.16
10 -0.15
11 0.47
12 -0.15
13 -0.14
14 0.03
15 -0.15
16 -0.15
17 -0.15
18 -0.15
19 -0.15
2 -0.57
20 -0.15
21 -0.15
22 0.08
23 0.28
24 0.15
25 0.15
26 0.15
27 0.15
28 0.15
29 0.15
3 -0.36
30 0.15
31 0.15
32 0.15
33 0.15
34 0.15
4 0.08
6 0.09
8 0.05
9 -0.15

> <PUBCHEM_EFFECTIVE_ROTOR_COUNT>
2

> <PUBCHEM_PHARMACOPHORE_FEATURES>
7
1 1 acceptor
1 2 acceptor
1 3 acceptor
6 1 4 6 8 11 13 rings
6 14 18 19 20 21 22 rings
6 4 5 6 7 9 10 rings
6 5 7 12 15 16 17 rings

> <PUBCHEM_HEAVY_ATOM_COUNT>
23

> <PUBCHEM_ATOM_DEF_STEREO_COUNT>
0

> <PUBCHEM_ATOM_UDEF_STEREO_COUNT>
0

> <PUBCHEM_BOND_DEF_STEREO_COUNT>
0

> <PUBCHEM_BOND_UDEF_STEREO_COUNT>
0

> <PUBCHEM_ISOTOPIC_ATOM_COUNT>
0

> <PUBCHEM_COMPONENT_COUNT>
1

> <PUBCHEM_CACTVS_TAUTO_COUNT>
1

> <PUBCHEM_CONFORMER_ID>
00017D0C00000001

> <PUBCHEM_MMFF94_ENERGY>
82.8764

> <PUBCHEM_FEATURE_SELFOVERLAP>
35.576

> <PUBCHEM_SHAPE_FINGERPRINT>
10319926 262 18270100402079926762
10411042 1 17762900270321765967
10595046 47 18336262435838263090
10670039 82 18335995202931019076
11135609 187 18265041446107562349
11370993 70 18339077065061403245
12107183 9 18119238477274933946
12173636 292 18411695478722704199
12236239 1 18114177558279793378
12390115 104 18271821089688781929
12596602 18 17530679926720402320
12788726 201 18189888906276557923
13140716 1 17976265951930792315
13785724 45 17688867541505479050
138480 1 17186158665890536743
13965767 371 17752770121506562429
14251764 75 18055081964830210537
14508225 48 17767672120963889591
14739800 52 18268129020617914736
14767858 380 18269817788957994613
14790565 3 18410014291089611072
15042514 8 18265338498334452411
15196674 1 18410292475825558122
20101258 96 17905896129595238763
20510252 161 18343305859864982251
20511986 3 18040983060386580968
20715895 44 18048872992582106849
21033648 29 17774426274895460984
21065198 48 18261387845702094402
21236236 1 18412544323100304405
21421861 104 17822840971960030138
21756936 100 18271235097647027476
23227448 37 18412544284672484829
23366157 5 17900827046173737067
23402539 116 18341887519555246079
23557571 272 18201726197221448028
23559900 14 18057604257478660614
245318 6 17388558252569829788
283562 15 18411698795028573027
335352 9 18266458707615070622
350125 39 18411701006630638969
394222 165 18118681020041469523
4073 2 18114186389260406298
4214541 1 18410011026908970480
44249763 50 17344334804374175624
445580 37 18337402646966890324
474 4 18193838141884562401
5104073 3 18187359926948394890
6327066 14 18335978658691114525
633830 44 18199181785180141823
636775 72 18123187077393043552
6700243 42 17408563913717908542
7064713 232 18337387154186325540
7808743 9 18411134749293735568
9981440 41 18335704906118096499

> <PUBCHEM_SHAPE_MULTIPOLES>
455.72
12.32
3.61
0.68
14.47
0.46
-0.01
-9.12
-0.18
-3.15
0.12
0.23
-0.01
-0.87

> <PUBCHEM_SHAPE_SELFOVERLAP>
1027.355

> <PUBCHEM_SHAPE_VOLUME>
239.7

> <PUBCHEM_COORDINATE_TYPE>
2
5
10

$$$$