57385523
  -OEChem-03242010103D

 78 81  0     1  0  0  0  0  0999 V2000
   -2.6702    3.6806   -0.8022 O   0  0  0  0  0  0  0  0  0  0  0  0
    2.8494   -4.2189    2.2134 O   0  0  0  0  0  0  0  0  0  0  0  0
   -4.4749    1.6600   -0.1766 O   0  0  0  0  0  0  0  0  0  0  0  0
    3.4184   -1.6074   -0.2235 O   0  0  0  0  0  0  0  0  0  0  0  0
   -5.2896    1.0511   -2.6609 O   0  0  0  0  0  0  0  0  0  0  0  0
    5.3747    0.1609    1.9149 O   0  0  0  0  0  0  0  0  0  0  0  0
   -1.2004    0.3448   -0.1261 N   0  0  0  0  0  0  0  0  0  0  0  0
    0.6189   -1.8194    0.4775 N   0  0  0  0  0  0  0  0  0  0  0  0
    0.0670    0.5872    0.5740 C   0  0  0  0  0  0  0  0  0  0  0  0
   -1.0816   -0.8202   -1.0115 C   0  0  0  0  0  0  0  0  0  0  0  0
    0.5003   -0.6538    1.3620 C   0  0  0  0  0  0  0  0  0  0  0  0
   -0.6474   -2.0615   -0.2245 C   0  0  0  0  0  0  0  0  0  0  0  0
   -1.6126    1.5283   -0.8781 C   0  0  0  0  0  0  0  0  0  0  0  0
    1.0294   -3.0029    1.2306 C   0  0  0  0  0  0  0  0  0  0  0  0
   -2.2663    2.5815    0.0196 C   0  0  2  0  0  0  0  0  0  0  0  0
    2.5341   -3.0135    1.5104 C   0  0  2  0  0  0  0  0  0  0  0  0
   -3.4898    2.0608    0.7707 C   0  0  0  0  0  0  0  0  0  0  0  0
    3.3853   -2.9524    0.2440 C   0  0  0  0  0  0  0  0  0  0  0  0
   -5.3014    0.6326    0.1929 C   0  0  0  0  0  0  0  0  0  0  0  0
    4.5521   -1.2132   -0.8825 C   0  0  0  0  0  0  0  0  0  0  0  0
   -5.8360   -0.2344   -0.7601 C   0  0  0  0  0  0  0  0  0  0  0  0
    5.3304   -0.1604   -0.4013 C   0  0  0  0  0  0  0  0  0  0  0  0
   -5.6062    0.4588    1.5431 C   0  0  0  0  0  0  0  0  0  0  0  0
    4.9267   -1.8813   -2.0483 C   0  0  0  0  0  0  0  0  0  0  0  0
   -6.6755   -1.2751   -0.3631 C   0  0  0  0  0  0  0  0  0  0  0  0
   -6.4458   -0.5820    1.9400 C   0  0  0  0  0  0  0  0  0  0  0  0
   -6.9805   -1.4490    0.9869 C   0  0  0  0  0  0  0  0  0  0  0  0
    6.4832    0.2243   -1.0860 C   0  0  0  0  0  0  0  0  0  0  0  0
   -5.5302   -0.0706   -2.1743 C   0  0  0  0  0  0  0  0  0  0  0  0
    6.0795   -1.4967   -2.7330 C   0  0  0  0  0  0  0  0  0  0  0  0
    4.9582    0.5493    0.8146 C   0  0  0  0  0  0  0  0  0  0  0  0
    6.8578   -0.4438   -2.2517 C   0  0  0  0  0  0  0  0  0  0  0  0
   -7.8777   -2.5618    1.4116 C   0  0  0  0  0  0  0  0  0  0  0  0
    4.0761    1.7540    0.7983 C   0  0  0  0  0  0  0  0  0  0  0  0
   -5.4993   -1.2829   -3.0975 C   0  0  0  0  0  0  0  0  0  0  0  0
    3.7506    2.3966    1.9927 C   0  0  0  0  0  0  0  0  0  0  0  0
    3.5790    2.2374   -0.4118 C   0  0  0  0  0  0  0  0  0  0  0  0
    2.9276    3.5229    1.9769 C   0  0  0  0  0  0  0  0  0  0  0  0
    2.7562    3.3636   -0.4278 C   0  0  0  0  0  0  0  0  0  0  0  0
    2.4305    4.0063    0.7667 C   0  0  0  0  0  0  0  0  0  0  0  0
    0.8568    0.8589   -0.1376 H   0  0  0  0  0  0  0  0  0  0  0  0
   -0.0344    1.4147    1.2845 H   0  0  0  0  0  0  0  0  0  0  0  0
   -2.0517   -1.0347   -1.4767 H   0  0  0  0  0  0  0  0  0  0  0  0
   -0.3652   -0.6245   -1.8209 H   0  0  0  0  0  0  0  0  0  0  0  0
   -1.4379   -2.3470    0.4829 H   0  0  0  0  0  0  0  0  0  0  0  0
   -0.5280   -2.8893   -0.9342 H   0  0  0  0  0  0  0  0  0  0  0  0
    1.4631   -0.4270    1.8329 H   0  0  0  0  0  0  0  0  0  0  0  0
   -0.2205   -0.8441    2.1689 H   0  0  0  0  0  0  0  0  0  0  0  0
   -2.3433    1.2536   -1.6517 H   0  0  0  0  0  0  0  0  0  0  0  0
   -0.7759    1.9715   -1.4356 H   0  0  0  0  0  0  0  0  0  0  0  0
    0.4641   -3.1139    2.1660 H   0  0  0  0  0  0  0  0  0  0  0  0
    0.8040   -3.9136    0.6573 H   0  0  0  0  0  0  0  0  0  0  0  0
   -1.5382    2.9746    0.7372 H   0  0  0  0  0  0  0  0  0  0  0  0
    2.7945   -2.1831    2.1766 H   0  0  0  0  0  0  0  0  0  0  0  0
   -3.9164    2.8682    1.3776 H   0  0  0  0  0  0  0  0  0  0  0  0
   -3.1753    1.2429    1.4303 H   0  0  0  0  0  0  0  0  0  0  0  0
    2.9761   -3.6063   -0.5354 H   0  0  0  0  0  0  0  0  0  0  0  0
    4.4007   -3.3066    0.4679 H   0  0  0  0  0  0  0  0  0  0  0  0
   -3.0571    4.3559   -0.2191 H   0  0  0  0  0  0  0  0  0  0  0  0
    3.7907   -4.1807    2.4545 H   0  0  0  0  0  0  0  0  0  0  0  0
   -5.2415    1.1289    2.3158 H   0  0  0  0  0  0  0  0  0  0  0  0
    4.3260   -2.6975   -2.4402 H   0  0  0  0  0  0  0  0  0  0  0  0
   -7.1142   -1.9509   -1.0928 H   0  0  0  0  0  0  0  0  0  0  0  0
   -6.6833   -0.7015    2.9938 H   0  0  0  0  0  0  0  0  0  0  0  0
    7.0982    1.0429   -0.7209 H   0  0  0  0  0  0  0  0  0  0  0  0
    6.3701   -2.0154   -3.6418 H   0  0  0  0  0  0  0  0  0  0  0  0
    7.7551   -0.1440   -2.7851 H   0  0  0  0  0  0  0  0  0  0  0  0
   -8.9244   -2.2519    1.3314 H   0  0  0  0  0  0  0  0  0  0  0  0
   -7.7235   -3.4494    0.7887 H   0  0  0  0  0  0  0  0  0  0  0  0
   -7.6807   -2.8594    2.4472 H   0  0  0  0  0  0  0  0  0  0  0  0
   -6.4969   -1.4575   -3.5077 H   0  0  0  0  0  0  0  0  0  0  0  0
   -5.1447   -2.1689   -2.5639 H   0  0  0  0  0  0  0  0  0  0  0  0
   -4.7972   -1.0902   -3.9144 H   0  0  0  0  0  0  0  0  0  0  0  0
    4.1237    2.0404    2.9490 H   0  0  0  0  0  0  0  0  0  0  0  0
    3.8076    1.7646   -1.3620 H   0  0  0  0  0  0  0  0  0  0  0  0
    2.6730    4.0230    2.9068 H   0  0  0  0  0  0  0  0  0  0  0  0
    2.3669    3.7391   -1.3696 H   0  0  0  0  0  0  0  0  0  0  0  0
    1.7883    4.8821    0.7543 H   0  0  0  0  0  0  0  0  0  0  0  0
  1 15  1  0  0  0  0
  1 59  1  0  0  0  0
  2 16  1  0  0  0  0
  2 60  1  0  0  0  0
  3 17  1  0  0  0  0
  3 19  1  0  0  0  0
  4 18  1  0  0  0  0
  4 20  1  0  0  0  0
  5 29  2  0  0  0  0
  6 31  2  0  0  0  0
  7  9  1  0  0  0  0
  7 10  1  0  0  0  0
  7 13  1  0  0  0  0
  8 11  1  0  0  0  0
  8 12  1  0  0  0  0
  8 14  1  0  0  0  0
  9 11  1  0  0  0  0
  9 41  1  0  0  0  0
  9 42  1  0  0  0  0
 10 12  1  0  0  0  0
 10 43  1  0  0  0  0
 10 44  1  0  0  0  0
 11 47  1  0  0  0  0
 11 48  1  0  0  0  0
 12 45  1  0  0  0  0
 12 46  1  0  0  0  0
 13 15  1  0  0  0  0
 13 49  1  0  0  0  0
 13 50  1  0  0  0  0
 14 16  1  0  0  0  0
 14 51  1  0  0  0  0
 14 52  1  0  0  0  0
 15 17  1  0  0  0  0
 15 53  1  0  0  0  0
 16 18  1  0  0  0  0
 16 54  1  0  0  0  0
 17 55  1  0  0  0  0
 17 56  1  0  0  0  0
 18 57  1  0  0  0  0
 18 58  1  0  0  0  0
 19 21  2  0  0  0  0
 19 23  1  0  0  0  0
 20 22  1  0  0  0  0
 20 24  2  0  0  0  0
 21 25  1  0  0  0  0
 21 29  1  0  0  0  0
 22 28  2  0  0  0  0
 22 31  1  0  0  0  0
 23 26  2  0  0  0  0
 23 61  1  0  0  0  0
 24 30  1  0  0  0  0
 24 62  1  0  0  0  0
 25 27  2  0  0  0  0
 25 63  1  0  0  0  0
 26 27  1  0  0  0  0
 26 64  1  0  0  0  0
 27 33  1  0  0  0  0
 28 32  1  0  0  0  0
 28 65  1  0  0  0  0
 29 35  1  0  0  0  0
 30 32  2  0  0  0  0
 30 66  1  0  0  0  0
 31 34  1  0  0  0  0
 32 67  1  0  0  0  0
 33 68  1  0  0  0  0
 33 69  1  0  0  0  0
 33 70  1  0  0  0  0
 34 36  2  0  0  0  0
 34 37  1  0  0  0  0
 35 71  1  0  0  0  0
 35 72  1  0  0  0  0
 35 73  1  0  0  0  0
 36 38  1  0  0  0  0
 36 74  1  0  0  0  0
 37 39  2  0  0  0  0
 37 75  1  0  0  0  0
 38 40  2  0  0  0  0
 38 76  1  0  0  0  0
 39 40  1  0  0  0  0
 39 77  1  0  0  0  0
 40 78  1  0  0  0  0
M  END
> <PUBCHEM_COMPOUND_CID>
57385523

> <PUBCHEM_CONFORMER_RMSD>
1.6

> <PUBCHEM_CONFORMER_DIVERSEORDER>
2
69
153
202
61
165
257
157
75
247
189
25
76
170
113
92
163
192
152
180
9
57
217
145
26
255
95
156
221
62
33
220
120
137
74
154
23
227
128
234
67
80
191
244
167
4
211
209
222
197
107
35
196
169
12
125
123
231
59
85
194
215
3
212
143
242
77
177
149
229
160
100
232
42
132
171
223
206
187
205
175
237
87
11
78
112
53
195
121
122
208
29
60
251
179
96
93
118
34
201
79
102
233
200
135
115
16
83
66
90
56
235
162
109
126
64
139
240
5
147
185
84
253
1
8
158
133
51
172
161
198
138
65
178
193
37
188
14
131
119
111
245
210
13
256
24
148
86
36
225
46
168
110
97
239
181
106
43
218
207
184
28
214
203
63
124
176
50
68
49
241
173
186
89
134
116
183
7
219
39
108
151
55
129
91
254
45
58
21
82
31
94
44
230
38
103
114
15
32
216
54
70
6
127
250
164
52
27
98
40
226
243
159
41
213
146
140
142
252
99
150
199
166
17
224
144
238
228
10
246
155
204
22
72
105
174
117
81
130
236
19
47
190
71
20
18
104
101
73
88
182
136
30
141
248
249
48

> <PUBCHEM_MMFF94_PARTIAL_CHARGES>
54
1 -0.68
10 0.27
11 0.27
12 0.27
13 0.27
14 0.27
15 0.28
16 0.28
17 0.28
18 0.28
19 0.08
2 -0.68
20 0.08
21 0.09
22 0.09
23 -0.15
24 -0.15
25 -0.15
26 -0.15
27 -0.14
28 -0.15
29 0.42
3 -0.36
30 -0.15
31 0.4
32 -0.15
33 0.14
34 0.09
35 0.06
36 -0.15
37 -0.15
38 -0.15
39 -0.15
4 -0.36
40 -0.15
5 -0.57
59 0.4
6 -0.57
60 0.4
61 0.15
62 0.15
63 0.15
64 0.15
65 0.15
66 0.15
67 0.15
7 -0.81
74 0.15
75 0.15
76 0.15
77 0.15
78 0.15
8 -0.81
9 0.27

> <PUBCHEM_EFFECTIVE_ROTOR_COUNT>
14.2

> <PUBCHEM_PHARMACOPHORE_FEATURES>
14
1 1 acceptor
1 1 donor
1 2 acceptor
1 2 donor
1 3 acceptor
1 4 acceptor
1 5 acceptor
1 6 acceptor
1 7 cation
1 8 cation
6 19 21 23 25 26 27 rings
6 20 22 24 28 30 32 rings
6 34 36 37 38 39 40 rings
6 7 8 9 10 11 12 rings

> <PUBCHEM_HEAVY_ATOM_COUNT>
40

> <PUBCHEM_ATOM_DEF_STEREO_COUNT>
0

> <PUBCHEM_ATOM_UDEF_STEREO_COUNT>
2

> <PUBCHEM_BOND_DEF_STEREO_COUNT>
0

> <PUBCHEM_BOND_UDEF_STEREO_COUNT>
0

> <PUBCHEM_ISOTOPIC_ATOM_COUNT>
0

> <PUBCHEM_COMPONENT_COUNT>
1

> <PUBCHEM_CACTVS_TAUTO_COUNT>
2

> <PUBCHEM_CONFORMER_ID>
036BA23300000002

> <PUBCHEM_MMFF94_ENERGY>
126.2308

> <PUBCHEM_FEATURE_SELFOVERLAP>
71.063

> <PUBCHEM_SHAPE_FINGERPRINT>
10190108 129 18335717043869436353
12166972 35 17418097598695885672
12522641 24 18272938249627574953
13782708 43 18410855438695945632
15183329 4 17917706920323050471
15328829 1 17703798007187099835
15799311 1 16558753451184393359
18608769 82 18409174337341454746
20465049 17 18410581673844589800
27425 322 16010734956284891460
437795 51 18410299141752412875
513532 50 18059565846968989138
53794403 172 18264495160125907692
550186 72 18188215282275655989
5776283 40 18264505043299414316
86090 222 18260264182966999664

> <PUBCHEM_SHAPE_MULTIPOLES>
778
20.64
4.56
2.53
20.68
1.68
1
-7.1
4.42
-4.15
-1.93
0.31
-1.13
2.23

> <PUBCHEM_SHAPE_SELFOVERLAP>
1649.234

> <PUBCHEM_SHAPE_VOLUME>
435

> <PUBCHEM_COORDINATE_TYPE>
2
5
10

$$$$