140
 OpenBabel03292022003D

134142  0  0  1  0  0  0  0  0999 V2000
    4.1765   -5.6761  -10.9287 C   0  0  0  0  0  0  0  0  0  0  0  0
    4.2427   -6.4679   -9.8514 C   0  0  0  0  0  0  0  0  0  0  0  0
    3.8852   -7.9414   -9.8359 C   0  0  1  0  0  0  0  0  0  0  0  0
    5.1549   -8.7774   -9.6246 C   0  0  0  0  0  0  0  0  0  0  0  0
    5.0938   -9.7059   -8.4587 N   0  0  3  0  0  0  0  0  0  0  0  0
    3.9574  -10.6279   -8.6817 C   0  0  0  0  0  0  0  0  0  0  0  0
    2.6424   -9.8550   -8.8754 C   0  0  0  0  0  0  0  0  0  0  0  0
    2.9004   -8.3411   -8.7199 C   0  0  1  0  0  0  0  0  0  0  0  0
    3.5554   -8.1146   -7.3316 C   0  0  0  0  0  0  0  0  0  0  0  0
    4.8557   -8.9720   -7.1791 C   0  0  1  0  0  0  0  0  0  0  0  0
    6.0825   -8.1579   -6.6053 C   0  0  2  0  0  0  0  0  0  0  0  0
    5.6122   -7.4183   -5.4354 O   0  0  0  0  0  0  0  0  0  0  0  0
    6.3757   -6.3515   -5.0636 C   0  0  0  0  0  0  0  0  0  0  0  0
    7.3682   -5.9457   -5.6520 O   0  0  0  0  0  0  0  0  0  0  0  0
    5.8219   -5.6956   -3.8271 C   0  0  0  0  0  0  0  0  0  0  0  0
    4.5305   -4.9464   -4.1246 C   0  0  0  0  0  0  0  0  0  0  0  0
    4.7121   -3.8966   -5.2281 C   0  0  0  0  0  0  0  0  0  0  0  0
    3.4192   -3.1606   -5.5721 C   0  0  0  0  0  0  0  0  0  0  0  0
    2.8891   -2.3418   -4.4007 C   0  0  0  0  0  0  0  0  0  0  0  0
    1.6148   -1.5864   -4.7686 C   0  0  0  0  0  0  0  0  0  0  0  0
    1.0941   -0.8279   -3.6061 C   0  0  0  0  0  0  0  0  0  0  0  0
   -0.0879   -0.9749   -2.9166 C   0  0  0  0  0  0  0  0  0  0  0  0
    0.0023   -0.0541   -1.9171 N   0  0  0  0  0  0  0  0  0  0  0  0
   -0.9670    0.2565   -0.8931 C   0  0  0  0  0  0  0  0  0  0  0  0
   -1.3853   -0.9346   -0.0285 C   0  0  0  0  0  0  0  0  0  0  0  0
   -0.2203   -1.5986    0.7221 C   0  0  0  0  0  0  0  0  0  0  0  0
   -0.6648   -2.7625    1.6198 C   0  0  0  0  0  0  0  0  0  0  0  0
   -1.4164   -3.8539    0.8772 C   0  0  0  0  0  0  0  0  0  0  0  0
   -1.4146   -3.9951   -0.3355 O   0  0  0  0  0  0  0  0  0  0  0  0
   -2.1536   -4.5754    1.7636 O   0  0  0  0  0  0  0  0  0  0  0  0
   -3.3574   -5.2789    1.3245 C   0  0  2  0  0  0  0  0  0  0  0  0
   -3.0880   -6.3427    0.2583 C   0  0  0  0  0  0  0  0  0  0  0  0
   -3.4486   -6.1060   -1.0746 C   0  0  0  0  0  0  0  0  0  0  0  0
   -3.1456   -7.0465   -2.0383 C   0  0  0  0  0  0  0  0  0  0  0  0
   -2.5029   -8.1989   -1.7846 N   0  0  0  0  0  0  0  0  0  0  0  0
   -2.1632   -8.4542   -0.5168 C   0  0  0  0  0  0  0  0  0  0  0  0
   -1.5128   -9.6542   -0.2781 C   0  0  0  0  0  0  0  0  0  0  0  0
   -1.1483  -10.0555    1.0047 C   0  0  0  0  0  0  0  0  0  0  0  0
   -1.4460   -9.2342    2.0849 C   0  0  0  0  0  0  0  0  0  0  0  0
   -1.1753   -9.5283    3.3978 O   0  0  0  0  0  0  0  0  0  0  0  0
   -0.5340  -10.7772    3.6580 C   0  0  0  0  0  0  0  0  0  0  0  0
   -2.0640   -8.0092    1.8634 C   0  0  0  0  0  0  0  0  0  0  0  0
   -2.4418   -7.5810    0.5638 C   0  0  0  0  0  0  0  0  0  0  0  0
   -4.5150   -4.2311    1.0583 C   0  0  2  0  0  0  0  0  0  0  0  0
   -4.5879   -3.1517    2.1767 C   0  0  0  0  0  0  0  0  0  0  0  0
   -6.0153   -3.0697    2.7477 C   0  0  2  0  0  0  0  0  0  0  0  0
   -6.3610   -4.4826    3.2529 C   0  0  0  0  0  0  0  0  0  0  0  0
   -6.3894   -5.4562    2.0673 C   0  0  0  0  0  0  0  0  0  0  0  0
   -5.8738   -4.8243    0.8326 N   0  0  3  0  0  0  0  0  0  0  0  0
   -6.8069   -3.7277    0.4618 C   0  0  0  0  0  0  0  0  0  0  0  0
   -7.0116   -2.7049    1.6178 C   0  0  2  0  0  0  0  0  0  0  0  0
   -6.9654   -1.2783    1.1062 C   0  0  0  0  0  0  0  0  0  0  0  0
   -6.4737   -0.2058    1.7415 C   0  0  0  0  0  0  0  0  0  0  0  0
    1.1532    0.6349   -1.9865 N   0  0  0  0  0  0  0  0  0  0  0  0
    1.8332    0.1690   -3.0240 N   0  0  0  0  0  0  0  0  0  0  0  0
    7.3421   -8.9610   -6.1908 C   0  0  0  0  0  0  0  0  0  0  0  0
    7.5263   -9.3350   -4.8527 C   0  0  0  0  0  0  0  0  0  0  0  0
    8.7911   -9.7208   -4.4392 C   0  0  0  0  0  0  0  0  0  0  0  0
    9.8786   -9.7595   -5.2373 N   0  0  0  0  0  0  0  0  0  0  0  0
    9.7163   -9.4563   -6.5352 C   0  0  0  0  0  0  0  0  0  0  0  0
   10.8130   -9.4532   -7.3973 C   0  0  0  0  0  0  0  0  0  0  0  0
   10.7097   -9.1704   -8.7749 C   0  0  0  0  0  0  0  0  0  0  0  0
    9.4642   -8.9399   -9.3088 C   0  0  0  0  0  0  0  0  0  0  0  0
    9.1186   -8.7148  -10.6083 O   0  0  0  0  0  0  0  0  0  0  0  0
   10.1502   -8.3542  -11.5092 C   0  0  0  0  0  0  0  0  0  0  0  0
    8.3789   -8.9477   -8.4462 C   0  0  0  0  0  0  0  0  0  0  0  0
    8.4573   -9.1197   -7.0629 C   0  0  0  0  0  0  0  0  0  0  0  0
    4.5084   -4.6429  -10.8691 H   0  0  0  0  0  0  0  0  0  0  0  0
    3.8244   -6.0355  -11.8895 H   0  0  0  0  0  0  0  0  0  0  0  0
    4.6597   -6.0411   -8.9406 H   0  0  0  0  0  0  0  0  0  0  0  0
    3.4557   -8.2139  -10.8100 H   0  0  0  0  0  0  0  0  0  0  0  0
    5.9812   -8.0733   -9.5424 H   0  0  0  0  0  0  0  0  0  0  0  0
    5.3783   -9.3685  -10.5230 H   0  0  0  0  0  0  0  0  0  0  0  0
    3.8639  -11.3267   -7.8403 H   0  0  0  0  0  0  0  0  0  0  0  0
    4.1617  -11.2566   -9.5573 H   0  0  0  0  0  0  0  0  0  0  0  0
    1.8989  -10.1876   -8.1430 H   0  0  0  0  0  0  0  0  0  0  0  0
    2.2357  -10.0692   -9.8720 H   0  0  0  0  0  0  0  0  0  0  0  0
    1.9644   -7.7804   -8.8130 H   0  0  0  0  0  0  0  0  0  0  0  0
    2.8347   -8.4101   -6.5585 H   0  0  0  0  0  0  0  0  0  0  0  0
    3.7515   -7.0483   -7.1811 H   0  0  0  0  0  0  0  0  0  0  0  0
    4.6370   -9.7190   -6.4007 H   0  0  0  0  0  0  0  0  0  0  0  0
    6.3621   -7.4030   -7.3503 H   0  0  0  0  0  0  0  0  0  0  0  0
    6.5782   -5.0031   -3.4369 H   0  0  0  0  0  0  0  0  0  0  0  0
    5.6677   -6.4547   -3.0514 H   0  0  0  0  0  0  0  0  0  0  0  0
    4.2029   -4.4699   -3.1939 H   0  0  0  0  0  0  0  0  0  0  0  0
    3.7455   -5.6537   -4.4172 H   0  0  0  0  0  0  0  0  0  0  0  0
    5.0698   -4.3760   -6.1452 H   0  0  0  0  0  0  0  0  0  0  0  0
    5.4809   -3.1740   -4.9265 H   0  0  0  0  0  0  0  0  0  0  0  0
    2.6622   -3.8833   -5.9017 H   0  0  0  0  0  0  0  0  0  0  0  0
    3.6142   -2.4955   -6.4227 H   0  0  0  0  0  0  0  0  0  0  0  0
    3.6633   -1.6370   -4.0714 H   0  0  0  0  0  0  0  0  0  0  0  0
    2.6730   -2.9945   -3.5474 H   0  0  0  0  0  0  0  0  0  0  0  0
    0.8558   -2.2984   -5.1160 H   0  0  0  0  0  0  0  0  0  0  0  0
    1.8103   -0.8956   -5.5967 H   0  0  0  0  0  0  0  0  0  0  0  0
   -0.9279   -1.6430   -3.0354 H   0  0  0  0  0  0  0  0  0  0  0  0
   -1.8436    0.6591   -1.4144 H   0  0  0  0  0  0  0  0  0  0  0  0
   -0.5591    1.0572   -0.2662 H   0  0  0  0  0  0  0  0  0  0  0  0
   -1.8886   -1.6636   -0.6708 H   0  0  0  0  0  0  0  0  0  0  0  0
   -2.1333   -0.5924    0.6964 H   0  0  0  0  0  0  0  0  0  0  0  0
    0.2719   -0.8446    1.3502 H   0  0  0  0  0  0  0  0  0  0  0  0
    0.5329   -1.9598    0.0128 H   0  0  0  0  0  0  0  0  0  0  0  0
   -1.3243   -2.3606    2.3987 H   0  0  0  0  0  0  0  0  0  0  0  0
    0.2092   -3.2085    2.1063 H   0  0  0  0  0  0  0  0  0  0  0  0
   -3.6745   -5.8194    2.2223 H   0  0  0  0  0  0  0  0  0  0  0  0
   -3.9447   -5.1955   -1.3885 H   0  0  0  0  0  0  0  0  0  0  0  0
   -3.4145   -6.8881   -3.0772 H   0  0  0  0  0  0  0  0  0  0  0  0
   -1.2910  -10.3052   -1.1222 H   0  0  0  0  0  0  0  0  0  0  0  0
   -0.6474  -11.0124    1.1152 H   0  0  0  0  0  0  0  0  0  0  0  0
   -0.4322  -10.8857    4.7421 H   0  0  0  0  0  0  0  0  0  0  0  0
    0.4714  -10.7927    3.2241 H   0  0  0  0  0  0  0  0  0  0  0  0
   -1.1320  -11.6215    3.2974 H   0  0  0  0  0  0  0  0  0  0  0  0
   -2.2728   -7.3872    2.7327 H   0  0  0  0  0  0  0  0  0  0  0  0
   -4.2361   -3.6908    0.1429 H   0  0  0  0  0  0  0  0  0  0  0  0
   -4.2845   -2.1818    1.7655 H   0  0  0  0  0  0  0  0  0  0  0  0
   -3.8988   -3.3749    2.9986 H   0  0  0  0  0  0  0  0  0  0  0  0
   -6.0595   -2.3626    3.5822 H   0  0  0  0  0  0  0  0  0  0  0  0
   -7.3320   -4.4783    3.7616 H   0  0  0  0  0  0  0  0  0  0  0  0
   -5.6134   -4.8087    3.9866 H   0  0  0  0  0  0  0  0  0  0  0  0
   -7.4189   -5.8010    1.9003 H   0  0  0  0  0  0  0  0  0  0  0  0
   -5.8259   -6.3649    2.3053 H   0  0  0  0  0  0  0  0  0  0  0  0
   -7.7802   -4.1628    0.1952 H   0  0  0  0  0  0  0  0  0  0  0  0
   -6.4498   -3.2455   -0.4569 H   0  0  0  0  0  0  0  0  0  0  0  0
   -8.0295   -2.8490    2.0091 H   0  0  0  0  0  0  0  0  0  0  0  0
   -7.4154   -1.1127    0.1269 H   0  0  0  0  0  0  0  0  0  0  0  0
   -6.0457   -0.2573    2.7366 H   0  0  0  0  0  0  0  0  0  0  0  0
   -6.5138    0.7757    1.2771 H   0  0  0  0  0  0  0  0  0  0  0  0
    6.7305   -9.2505   -4.1233 H   0  0  0  0  0  0  0  0  0  0  0  0
    8.9783   -9.9709   -3.3994 H   0  0  0  0  0  0  0  0  0  0  0  0
   11.7963   -9.6716   -6.9836 H   0  0  0  0  0  0  0  0  0  0  0  0
   11.6019   -9.1727   -9.3911 H   0  0  0  0  0  0  0  0  0  0  0  0
    9.6709   -7.9755  -12.4188 H   0  0  0  0  0  0  0  0  0  0  0  0
   10.7424   -9.2320  -11.7798 H   0  0  0  0  0  0  0  0  0  0  0  0
   10.7779   -7.5527  -11.1086 H   0  0  0  0  0  0  0  0  0  0  0  0
    7.4229   -8.8699   -8.9022 H   0  0  0  0  0  0  0  0  0  0  0  0
  1  2  2  0  0  0  0
  1 68  1  0  0  0  0
  1 69  1  0  0  0  0
  2 70  1  0  0  0  0
  3  4  1  0  0  0  0
  3  8  1  0  0  0  0
  3  2  1  0  0  0  0
  3 71  1  6  0  0  0
  4  5  1  0  0  0  0
  4 72  1  0  0  0  0
  4 73  1  0  0  0  0
  5  6  1  0  0  0  0
  5 10  1  0  0  0  0
  6  7  1  0  0  0  0
  6 74  1  0  0  0  0
  6 75  1  0  0  0  0
  7  8  1  0  0  0  0
  7 76  1  0  0  0  0
  7 77  1  0  0  0  0
  8  9  1  0  0  0  0
  8 78  1  6  0  0  0
  9 10  1  0  0  0  0
  9 79  1  0  0  0  0
  9 80  1  0  0  0  0
 10 11  1  0  0  0  0
 10 81  1  6  0  0  0
 11 56  1  0  0  0  0
 11 12  1  0  0  0  0
 11 82  1  1  0  0  0
 12 13  1  0  0  0  0
 13 14  2  0  0  0  0
 13 15  1  0  0  0  0
 15 16  1  0  0  0  0
 15 83  1  0  0  0  0
 15 84  1  0  0  0  0
 16 17  1  0  0  0  0
 16 85  1  0  0  0  0
 16 86  1  0  0  0  0
 17 18  1  0  0  0  0
 17 87  1  0  0  0  0
 17 88  1  0  0  0  0
 18 19  1  0  0  0  0
 18 89  1  0  0  0  0
 18 90  1  0  0  0  0
 19 20  1  0  0  0  0
 19 91  1  0  0  0  0
 19 92  1  0  0  0  0
 20 21  1  0  0  0  0
 20 93  1  0  0  0  0
 20 94  1  0  0  0  0
 21 22  2  0  0  0  0
 21 55  1  0  0  0  0
 22 23  1  0  0  0  0
 22 95  1  0  0  0  0
 23 24  1  0  0  0  0
 23 54  1  0  0  0  0
 24 25  1  0  0  0  0
 24 96  1  0  0  0  0
 24 97  1  0  0  0  0
 25 26  1  0  0  0  0
 25 98  1  0  0  0  0
 25 99  1  0  0  0  0
 26 27  1  0  0  0  0
 26100  1  0  0  0  0
 26101  1  0  0  0  0
 27 28  1  0  0  0  0
 27102  1  0  0  0  0
 27103  1  0  0  0  0
 28 29  2  0  0  0  0
 28 30  1  0  0  0  0
 31 44  1  0  0  0  0
 31 32  1  0  0  0  0
 31 30  1  0  0  0  0
 31104  1  1  0  0  0
 32 33  1  0  0  0  0
 32 43  2  0  0  0  0
 33 34  2  0  0  0  0
 33105  1  0  0  0  0
 34 35  1  0  0  0  0
 34106  1  0  0  0  0
 35 36  2  0  0  0  0
 36 37  1  0  0  0  0
 36 43  1  0  0  0  0
 37 38  2  0  0  0  0
 37107  1  0  0  0  0
 38 39  1  0  0  0  0
 38108  1  0  0  0  0
 39 40  1  0  0  0  0
 39 42  2  0  0  0  0
 40 41  1  0  0  0  0
 41109  1  0  0  0  0
 41110  1  0  0  0  0
 41111  1  0  0  0  0
 42 43  1  0  0  0  0
 42112  1  0  0  0  0
 44 45  1  0  0  0  0
 44 49  1  0  0  0  0
 44113  1  6  0  0  0
 45 46  1  0  0  0  0
 45114  1  0  0  0  0
 45115  1  0  0  0  0
 46 47  1  0  0  0  0
 46 51  1  0  0  0  0
 46116  1  1  0  0  0
 47 48  1  0  0  0  0
 47117  1  0  0  0  0
 47118  1  0  0  0  0
 48 49  1  0  0  0  0
 48119  1  0  0  0  0
 48120  1  0  0  0  0
 49 50  1  0  0  0  0
 50 51  1  0  0  0  0
 50121  1  0  0  0  0
 50122  1  0  0  0  0
 51 52  1  0  0  0  0
 51123  1  1  0  0  0
 52 53  2  0  0  0  0
 52124  1  0  0  0  0
 53125  1  0  0  0  0
 53126  1  0  0  0  0
 54 55  2  0  0  0  0
 56 57  1  0  0  0  0
 56 67  2  0  0  0  0
 57 58  2  0  0  0  0
 57127  1  0  0  0  0
 58 59  1  0  0  0  0
 58128  1  0  0  0  0
 59 60  2  0  0  0  0
 60 61  1  0  0  0  0
 60 67  1  0  0  0  0
 61 62  2  0  0  0  0
 61129  1  0  0  0  0
 62 63  1  0  0  0  0
 62130  1  0  0  0  0
 63 64  1  0  0  0  0
 63 66  2  0  0  0  0
 64 65  1  0  0  0  0
 65131  1  0  0  0  0
 65132  1  0  0  0  0
 65133  1  0  0  0  0
 66 67  1  0  0  0  0
 66134  1  0  0  0  0
M  END
>  <Energy>
231.561

$$$$