142
 OpenBabel03292022003D

 98103  0  0  0  0  0  0  0  0999 V2000
   -0.0004   10.7054    1.1529 C   0  0  0  0  0  0  0  0  0  0  0  0
    1.3995   10.9449    1.1513 O   0  0  0  0  0  0  0  0  0  0  0  0
    2.1108    9.8725    0.5370 C   0  0  0  0  0  0  0  0  0  0  0  0
    3.6025   10.1773    0.5601 C   0  0  0  0  0  0  0  0  0  0  0  0
    4.3032    9.1001   -0.0538 O   0  0  0  0  0  0  0  0  0  0  0  0
    5.7120    9.3261   -0.0632 C   0  0  0  0  0  0  0  0  0  0  0  0
    6.3822    8.1353   -0.7350 C   0  0  0  0  0  0  0  0  0  0  0  0
    7.7918    8.3201   -0.7616 O   0  0  0  0  0  0  0  0  0  0  0  0
    8.4444    7.2124   -1.3931 C   0  0  0  0  0  0  0  0  0  0  0  0
    9.9314    7.4927   -1.3763 C   0  0  0  0  0  0  0  0  0  0  0  0
   10.6891    6.4442   -1.9929 O   0  0  0  0  0  0  0  0  0  0  0  0
   12.0520    6.6715   -2.0026 C   0  0  0  0  0  0  0  0  0  0  0  0
   12.6077    7.8041   -1.4056 C   0  0  0  0  0  0  0  0  0  0  0  0
   13.9684    8.0336   -1.4532 C   0  0  0  0  0  0  0  0  0  0  0  0
   14.8261    7.1337   -2.0852 C   0  0  0  0  0  0  0  0  0  0  0  0
   14.2937    5.9800   -2.6641 C   0  0  0  0  0  0  0  0  0  0  0  0
   12.9048    5.7434   -2.6396 C   0  0  0  0  0  0  0  0  0  0  0  0
   12.3134    4.6415   -3.2118 O   0  0  0  0  0  0  0  0  0  0  0  0
   13.1720    3.7390   -3.9037 C   0  0  0  0  0  0  0  0  0  0  0  0
   16.3034    7.4538   -2.0538 C   0  0  0  0  0  0  0  0  0  0  0  0
   16.6129    8.8797   -2.3308 N   0  0  0  0  0  0  0  0  0  0  0  0
   17.8965    9.2367   -1.7017 C   0  0  0  0  0  0  0  0  0  0  0  0
   18.4224   10.6308   -1.9938 C   0  0  0  0  0  0  0  0  0  0  0  0
   17.8295   11.4947   -2.9171 C   0  0  0  0  0  0  0  0  0  0  0  0
   18.2042   12.8402   -2.9865 C   0  0  0  0  0  0  0  0  0  0  0  0
   19.2550   13.3436   -2.2141 C   0  0  0  0  0  0  0  0  0  0  0  0
   19.6287   14.7576   -2.3110 C   0  0  0  0  0  0  0  0  0  0  0  0
   20.1175   15.4843   -1.2064 C   0  0  0  0  0  0  0  0  0  0  0  0
   20.4867   16.8169   -1.3358 C   0  0  0  0  0  0  0  0  0  0  0  0
   20.3641   17.4825   -2.5648 C   0  0  0  0  0  0  0  0  0  0  0  0
   20.7599   18.8950   -2.6728 C   0  0  0  0  0  0  0  0  0  0  0  0
   21.1116   19.4171   -3.7228 O   0  0  0  0  0  0  0  0  0  0  0  0
   20.6476   19.5103   -1.4749 O   0  0  0  0  0  0  0  0  0  0  0  0
   21.0232   20.8885   -1.4746 C   0  0  0  0  0  0  0  0  0  0  0  0
   19.8277   16.8042   -3.6749 C   0  0  0  0  0  0  0  0  0  0  0  0
   19.6465   17.4422   -4.9327 N   0  0  0  0  0  0  0  0  0  0  0  0
   18.4689   17.2838   -5.6516 C   0  0  0  0  0  0  0  0  0  0  0  0
   17.4779   16.7082   -5.2103 O   0  0  0  0  0  0  0  0  0  0  0  0
   18.3927   17.8691   -7.0252 C   0  0  0  0  0  0  0  0  0  0  0  0
   17.2896   17.4762   -7.7941 C   0  0  0  0  0  0  0  0  0  0  0  0
   17.0707   18.0170   -9.0586 C   0  0  0  0  0  0  0  0  0  0  0  0
   17.9349   18.9505   -9.5895 C   0  0  0  0  0  0  0  0  0  0  0  0
   17.5610   19.6050  -10.6979 N   0  0  0  0  0  0  0  0  0  0  0  0
   18.4452   20.4521  -11.2504 C   0  0  0  0  0  0  0  0  0  0  0  0
   19.7662   20.5227  -10.8701 C   0  0  0  0  0  0  0  0  0  0  0  0
   20.1074   19.9466   -9.6489 C   0  0  0  0  0  0  0  0  0  0  0  0
   19.1494   19.2115   -8.9219 C   0  0  0  0  0  0  0  0  0  0  0  0
   19.3407   18.7253   -7.6053 C   0  0  0  0  0  0  0  0  0  0  0  0
   19.4857   15.4643   -3.5262 C   0  0  0  0  0  0  0  0  0  0  0  0
   19.9291   12.4429   -1.3757 C   0  0  0  0  0  0  0  0  0  0  0  0
   19.5154   11.1084   -1.2571 C   0  0  0  0  0  0  0  0  0  0  0  0
   15.5161    9.8015   -1.9596 C   0  0  0  0  0  0  0  0  0  0  0  0
   14.5428    9.2990   -0.9100 C   0  0  0  0  0  0  0  0  0  0  0  0
   -0.4959   11.5501    1.6308 H   0  0  0  0  0  0  0  0  0  0  0  0
   -0.2315    9.7950    1.7180 H   0  0  0  0  0  0  0  0  0  0  0  0
   -0.3732   10.6121    0.1264 H   0  0  0  0  0  0  0  0  0  0  0  0
    1.7747    9.7414   -0.4993 H   0  0  0  0  0  0  0  0  0  0  0  0
    1.9151    8.9350    1.0712 H   0  0  0  0  0  0  0  0  0  0  0  0
    3.9411   10.3063    1.5952 H   0  0  0  0  0  0  0  0  0  0  0  0
    3.8011   11.1120    0.0219 H   0  0  0  0  0  0  0  0  0  0  0  0
    6.0843    9.4404    0.9622 H   0  0  0  0  0  0  0  0  0  0  0  0
    5.9447   10.2485   -0.6090 H   0  0  0  0  0  0  0  0  0  0  0  0
    6.0034    8.0280   -1.7578 H   0  0  0  0  0  0  0  0  0  0  0  0
    6.1397    7.2179   -0.1866 H   0  0  0  0  0  0  0  0  0  0  0  0
    8.0931    7.1040   -2.4243 H   0  0  0  0  0  0  0  0  0  0  0  0
    8.2312    6.2879   -0.8461 H   0  0  0  0  0  0  0  0  0  0  0  0
   10.2288    7.6110   -0.3247 H   0  0  0  0  0  0  0  0  0  0  0  0
   10.0963    8.4435   -1.9033 H   0  0  0  0  0  0  0  0  0  0  0  0
   12.0102    8.5652   -0.9167 H   0  0  0  0  0  0  0  0  0  0  0  0
   14.9805    5.2895   -3.1398 H   0  0  0  0  0  0  0  0  0  0  0  0
   12.5615    2.9244   -4.3062 H   0  0  0  0  0  0  0  0  0  0  0  0
   13.9077    3.2923   -3.2258 H   0  0  0  0  0  0  0  0  0  0  0  0
   13.6658    4.2306   -4.7496 H   0  0  0  0  0  0  0  0  0  0  0  0
   16.8383    6.8367   -2.7834 H   0  0  0  0  0  0  0  0  0  0  0  0
   16.6590    7.1587   -1.0559 H   0  0  0  0  0  0  0  0  0  0  0  0
   18.6671    8.5290   -2.0306 H   0  0  0  0  0  0  0  0  0  0  0  0
   17.7964    9.1416   -0.6107 H   0  0  0  0  0  0  0  0  0  0  0  0
   17.0078   11.1682   -3.5532 H   0  0  0  0  0  0  0  0  0  0  0  0
   17.6190   13.4827   -3.6362 H   0  0  0  0  0  0  0  0  0  0  0  0
   20.1999   15.0091   -0.2325 H   0  0  0  0  0  0  0  0  0  0  0  0
   20.8576   17.3374   -0.4530 H   0  0  0  0  0  0  0  0  0  0  0  0
   20.8387   21.2911   -0.4749 H   0  0  0  0  0  0  0  0  0  0  0  0
   20.4246   21.4550   -2.1948 H   0  0  0  0  0  0  0  0  0  0  0  0
   22.0906   20.9825   -1.6967 H   0  0  0  0  0  0  0  0  0  0  0  0
   20.2415   18.2348   -5.1206 H   0  0  0  0  0  0  0  0  0  0  0  0
   16.5632   16.7635   -7.4019 H   0  0  0  0  0  0  0  0  0  0  0  0
   16.1989   17.7128   -9.6333 H   0  0  0  0  0  0  0  0  0  0  0  0
   18.0362   21.1240  -11.9994 H   0  0  0  0  0  0  0  0  0  0  0  0
   20.4829   21.0680  -11.4720 H   0  0  0  0  0  0  0  0  0  0  0  0
   21.1142   20.0938   -9.2663 H   0  0  0  0  0  0  0  0  0  0  0  0
   20.2085   19.0664   -7.0475 H   0  0  0  0  0  0  0  0  0  0  0  0
   19.1214   14.9213   -4.4089 H   0  0  0  0  0  0  0  0  0  0  0  0
   20.7814   12.7674   -0.7811 H   0  0  0  0  0  0  0  0  0  0  0  0
   20.0401   10.4455   -0.5731 H   0  0  0  0  0  0  0  0  0  0  0  0
   14.9631    9.9989   -2.8905 H   0  0  0  0  0  0  0  0  0  0  0  0
   15.8564   10.7814   -1.6136 H   0  0  0  0  0  0  0  0  0  0  0  0
   13.7623   10.0551   -0.7627 H   0  0  0  0  0  0  0  0  0  0  0  0
   15.0355    9.1208    0.0501 H   0  0  0  0  0  0  0  0  0  0  0  0
  1  2  1  0  0  0  0
  1 54  1  0  0  0  0
  1 55  1  0  0  0  0
  1 56  1  0  0  0  0
  2  3  1  0  0  0  0
  3  4  1  0  0  0  0
  3 57  1  0  0  0  0
  3 58  1  0  0  0  0
  4  5  1  0  0  0  0
  4 59  1  0  0  0  0
  4 60  1  0  0  0  0
  5  6  1  0  0  0  0
  6  7  1  0  0  0  0
  6 61  1  0  0  0  0
  6 62  1  0  0  0  0
  7  8  1  0  0  0  0
  7 63  1  0  0  0  0
  7 64  1  0  0  0  0
  8  9  1  0  0  0  0
  9 10  1  0  0  0  0
  9 65  1  0  0  0  0
  9 66  1  0  0  0  0
 10 11  1  0  0  0  0
 10 67  1  0  0  0  0
 10 68  1  0  0  0  0
 11 12  1  0  0  0  0
 12 13  1  0  0  0  0
 12 17  2  0  0  0  0
 13 14  2  0  0  0  0
 13 69  1  0  0  0  0
 14 15  1  0  0  0  0
 14 53  1  0  0  0  0
 15 16  2  0  0  0  0
 15 20  1  0  0  0  0
 16 17  1  0  0  0  0
 16 70  1  0  0  0  0
 17 18  1  0  0  0  0
 18 19  1  0  0  0  0
 19 71  1  0  0  0  0
 19 72  1  0  0  0  0
 19 73  1  0  0  0  0
 20 21  1  0  0  0  0
 20 74  1  0  0  0  0
 20 75  1  0  0  0  0
 21 22  1  0  0  0  0
 21 52  1  0  0  0  0
 22 23  1  0  0  0  0
 22 76  1  0  0  0  0
 22 77  1  0  0  0  0
 23 24  1  0  0  0  0
 23 51  2  0  0  0  0
 24 25  2  0  0  0  0
 24 78  1  0  0  0  0
 25 26  1  0  0  0  0
 25 79  1  0  0  0  0
 26 27  1  0  0  0  0
 26 50  2  0  0  0  0
 27 28  1  0  0  0  0
 27 49  2  0  0  0  0
 28 29  2  0  0  0  0
 28 80  1  0  0  0  0
 29 30  1  0  0  0  0
 29 81  1  0  0  0  0
 30 31  1  0  0  0  0
 30 35  2  0  0  0  0
 31 32  2  0  0  0  0
 31 33  1  0  0  0  0
 33 34  1  0  0  0  0
 34 82  1  0  0  0  0
 34 83  1  0  0  0  0
 34 84  1  0  0  0  0
 35 36  1  0  0  0  0
 35 49  1  0  0  0  0
 36 37  1  0  0  0  0
 36 85  1  0  0  0  0
 37 38  2  0  0  0  0
 37 39  1  0  0  0  0
 39 40  1  0  0  0  0
 39 48  2  0  0  0  0
 40 41  2  0  0  0  0
 40 86  1  0  0  0  0
 41 42  1  0  0  0  0
 41 87  1  0  0  0  0
 42 43  1  0  0  0  0
 42 47  2  0  0  0  0
 43 44  2  0  0  0  0
 44 45  1  0  0  0  0
 44 88  1  0  0  0  0
 45 46  2  0  0  0  0
 45 89  1  0  0  0  0
 46 47  1  0  0  0  0
 46 90  1  0  0  0  0
 47 48  1  0  0  0  0
 48 91  1  0  0  0  0
 49 92  1  0  0  0  0
 50 51  1  0  0  0  0
 50 93  1  0  0  0  0
 51 94  1  0  0  0  0
 52 53  1  0  0  0  0
 52 95  1  0  0  0  0
 52 96  1  0  0  0  0
 53 97  1  0  0  0  0
 53 98  1  0  0  0  0
M  END
>  <Energy>
243.092

$$$$