127028355
  -OEChem-03242010103D

 56 59  0     0  0  0  0  0  0999 V2000
   -8.2745   -0.0345    0.4829 S   0  0  0  0  0  0  0  0  0  0  0  0
   -6.8910   -2.2264    0.0554 F   0  0  0  0  0  0  0  0  0  0  0  0
   -8.2215   -1.6558   -1.5842 F   0  0  0  0  0  0  0  0  0  0  0  0
   -9.0428   -2.5173    0.2388 F   0  0  0  0  0  0  0  0  0  0  0  0
    3.0839    0.7400    0.1897 O   0  0  0  0  0  0  0  0  0  0  0  0
    4.0154   -3.2181    0.0251 O   0  0  0  0  0  0  0  0  0  0  0  0
    6.5592   -2.5919   -0.3710 O   0  0  0  0  0  0  0  0  0  0  0  0
    7.5948    2.0409   -0.5157 O   0  0  0  0  0  0  0  0  0  0  0  0
   -1.6951    1.4997    0.2801 N   0  0  0  0  0  0  0  0  0  0  0  0
    0.8472    0.2377    0.5404 N   0  0  0  0  0  0  0  0  0  0  0  0
   -0.4758    2.3018    0.4554 C   0  0  0  0  0  0  0  0  0  0  0  0
   -1.3926    0.2653   -0.4592 C   0  0  0  0  0  0  0  0  0  0  0  0
   -0.3436   -0.5695    0.2778 C   0  0  0  0  0  0  0  0  0  0  0  0
    0.5935    1.5116    1.2124 C   0  0  0  0  0  0  0  0  0  0  0  0
   -2.7244    2.2740   -0.4125 C   0  0  0  0  0  0  0  0  0  0  0  0
    2.1093   -0.2401    0.3392 C   0  0  0  0  0  0  0  0  0  0  0  0
   -4.0996    1.7024   -0.1917 C   0  0  0  0  0  0  0  0  0  0  0  0
    2.3821   -1.5546    0.2903 C   0  0  0  0  0  0  0  0  0  0  0  0
    4.3853    0.3592   -0.0168 C   0  0  0  0  0  0  0  0  0  0  0  0
    4.7824   -0.9742   -0.0848 C   0  0  0  0  0  0  0  0  0  0  0  0
   -4.8701    1.2959   -1.2812 C   0  0  0  0  0  0  0  0  0  0  0  0
   -4.6031    1.5789    1.1034 C   0  0  0  0  0  0  0  0  0  0  0  0
    3.7643   -2.0219    0.0704 C   0  0  0  0  0  0  0  0  0  0  0  0
    6.1232   -1.3037   -0.2971 C   0  0  0  0  0  0  0  0  0  0  0  0
    5.3304    1.3753   -0.1615 C   0  0  0  0  0  0  0  0  0  0  0  0
   -6.1440    0.7662   -1.0756 C   0  0  0  0  0  0  0  0  0  0  0  0
   -5.8769    1.0493    1.3089 C   0  0  0  0  0  0  0  0  0  0  0  0
   -6.6473    0.6429    0.2194 C   0  0  0  0  0  0  0  0  0  0  0  0
    6.6709    1.0514   -0.3739 C   0  0  0  0  0  0  0  0  0  0  0  0
    7.0663   -0.2854   -0.4413 C   0  0  0  0  0  0  0  0  0  0  0  0
    6.9641   -3.2100    0.8492 C   0  0  0  0  0  0  0  0  0  0  0  0
   -8.0930   -1.6741   -0.2363 C   0  0  0  0  0  0  0  0  0  0  0  0
    7.1233    3.3852   -0.4363 C   0  0  0  0  0  0  0  0  0  0  0  0
   -0.0795    2.6204   -0.5182 H   0  0  0  0  0  0  0  0  0  0  0  0
   -2.2922   -0.3514   -0.5696 H   0  0  0  0  0  0  0  0  0  0  0  0
   -1.0291    0.4983   -1.4694 H   0  0  0  0  0  0  0  0  0  0  0  0
   -0.7015    3.2072    1.0317 H   0  0  0  0  0  0  0  0  0  0  0  0
    1.4932    2.1318    1.2952 H   0  0  0  0  0  0  0  0  0  0  0  0
    0.2571    1.3112    2.2379 H   0  0  0  0  0  0  0  0  0  0  0  0
   -0.7478   -0.9431    1.2270 H   0  0  0  0  0  0  0  0  0  0  0  0
   -0.1352   -1.4390   -0.3556 H   0  0  0  0  0  0  0  0  0  0  0  0
   -2.4985    2.3754   -1.4825 H   0  0  0  0  0  0  0  0  0  0  0  0
   -2.7589    3.2997   -0.0191 H   0  0  0  0  0  0  0  0  0  0  0  0
    1.6389   -2.3305    0.4319 H   0  0  0  0  0  0  0  0  0  0  0  0
   -4.4907    1.3863   -2.2954 H   0  0  0  0  0  0  0  0  0  0  0  0
   -4.0167    1.8962    1.9618 H   0  0  0  0  0  0  0  0  0  0  0  0
    4.9640    2.3947   -0.0996 H   0  0  0  0  0  0  0  0  0  0  0  0
   -6.7287    0.4618   -1.9400 H   0  0  0  0  0  0  0  0  0  0  0  0
   -6.2527    0.9615    2.3254 H   0  0  0  0  0  0  0  0  0  0  0  0
    8.1124   -0.5311   -0.6078 H   0  0  0  0  0  0  0  0  0  0  0  0
    7.0893   -4.2807    0.6660 H   0  0  0  0  0  0  0  0  0  0  0  0
    6.2153   -3.0736    1.6361 H   0  0  0  0  0  0  0  0  0  0  0  0
    7.9234   -2.7965    1.1756 H   0  0  0  0  0  0  0  0  0  0  0  0
    7.9905    4.0400   -0.5704 H   0  0  0  0  0  0  0  0  0  0  0  0
    6.7053    3.6077    0.5514 H   0  0  0  0  0  0  0  0  0  0  0  0
    6.4221    3.6145   -1.2458 H   0  0  0  0  0  0  0  0  0  0  0  0
  1 28  1  0  0  0  0
  1 32  1  0  0  0  0
  2 32  1  0  0  0  0
  3 32  1  0  0  0  0
  4 32  1  0  0  0  0
  5 16  1  0  0  0  0
  5 19  1  0  0  0  0
  6 23  2  0  0  0  0
  7 24  1  0  0  0  0
  7 31  1  0  0  0  0
  8 29  1  0  0  0  0
  8 33  1  0  0  0  0
  9 11  1  0  0  0  0
  9 12  1  0  0  0  0
  9 15  1  0  0  0  0
 10 13  1  0  0  0  0
 10 14  1  0  0  0  0
 10 16  1  0  0  0  0
 11 14  1  0  0  0  0
 11 34  1  0  0  0  0
 11 37  1  0  0  0  0
 12 13  1  0  0  0  0
 12 35  1  0  0  0  0
 12 36  1  0  0  0  0
 13 40  1  0  0  0  0
 13 41  1  0  0  0  0
 14 38  1  0  0  0  0
 14 39  1  0  0  0  0
 15 17  1  0  0  0  0
 15 42  1  0  0  0  0
 15 43  1  0  0  0  0
 16 18  2  0  0  0  0
 17 21  2  0  0  0  0
 17 22  1  0  0  0  0
 18 23  1  0  0  0  0
 18 44  1  0  0  0  0
 19 20  2  0  0  0  0
 19 25  1  0  0  0  0
 20 23  1  0  0  0  0
 20 24  1  0  0  0  0
 21 26  1  0  0  0  0
 21 45  1  0  0  0  0
 22 27  2  0  0  0  0
 22 46  1  0  0  0  0
 24 30  2  0  0  0  0
 25 29  2  0  0  0  0
 25 47  1  0  0  0  0
 26 28  2  0  0  0  0
 26 48  1  0  0  0  0
 27 28  1  0  0  0  0
 27 49  1  0  0  0  0
 29 30  1  0  0  0  0
 30 50  1  0  0  0  0
 31 51  1  0  0  0  0
 31 52  1  0  0  0  0
 31 53  1  0  0  0  0
 33 54  1  0  0  0  0
 33 55  1  0  0  0  0
 33 56  1  0  0  0  0
M  END
> <PUBCHEM_COMPOUND_CID>
127028355

> <PUBCHEM_CONFORMER_RMSD>
1

> <PUBCHEM_CONFORMER_DIVERSEORDER>
2
15
45
47
12
30
23
17
10
38
19
40
24
34
33
4
31
41
39
13
21
27
25
7
46
43
8
37
32
28
29
22
50
42
44
9
14
11
6
26
48
35
36
5
49
3
1
20
18
16

> <PUBCHEM_MMFF94_PARTIAL_CHARGES>
40
1 -0.33
10 -0.84
11 0.27
12 0.27
13 0.37
14 0.37
15 0.41
16 0.18
17 -0.14
18 -0.14
19 0.08
2 -0.34
20 0.09
21 -0.15
22 -0.15
23 0.47
24 0.08
25 -0.15
26 -0.15
27 -0.15
28 0.1
29 0.08
3 -0.34
30 -0.15
31 0.28
32 1.25
33 0.28
4 -0.34
44 0.15
45 0.15
46 0.15
47 0.15
48 0.15
49 0.15
5 -0.16
50 0.15
6 -0.57
7 -0.36
8 -0.36
9 -0.81

> <PUBCHEM_EFFECTIVE_ROTOR_COUNT>
8.2

> <PUBCHEM_PHARMACOPHORE_FEATURES>
10
1 10 cation
1 5 acceptor
1 6 acceptor
1 7 acceptor
1 8 acceptor
1 9 cation
6 17 21 22 26 27 28 rings
6 19 20 24 25 29 30 rings
6 5 16 18 19 20 23 rings
6 9 10 11 12 13 14 rings

> <PUBCHEM_HEAVY_ATOM_COUNT>
33

> <PUBCHEM_ATOM_DEF_STEREO_COUNT>
0

> <PUBCHEM_ATOM_UDEF_STEREO_COUNT>
0

> <PUBCHEM_BOND_DEF_STEREO_COUNT>
0

> <PUBCHEM_BOND_UDEF_STEREO_COUNT>
0

> <PUBCHEM_ISOTOPIC_ATOM_COUNT>
0

> <PUBCHEM_COMPONENT_COUNT>
1

> <PUBCHEM_CACTVS_TAUTO_COUNT>
1

> <PUBCHEM_CONFORMER_ID>
07924C8300000002

> <PUBCHEM_MMFF94_ENERGY>
107.6762

> <PUBCHEM_FEATURE_SELFOVERLAP>
50.787

> <PUBCHEM_SHAPE_FINGERPRINT>
10049733 35 18410564108140499749
10162869 55 18334293163706086878
10299344 5 18130788941102517457
10391435 84 17894915178562141827
10595046 47 18341333280286702392
10677351 14 18334579005920869533
10917259 128 13840801333517806965
11007060 377 18041005016433270801
11497681 19 18410292510723542285
12166972 35 18262242119172253228
12522641 126 18117282664811147429
1361 4 18341613672836702367
13692114 37 18260544507726600762
13782708 43 17824262601133325386
13914758 101 8718828686973507669
14142895 15 18336269041303195108
14178184 131 17988638658211723039
14251764 18 18060137648311651573
14400156 96 17749113310322835524
14444916 359 14692577623957725733
14856354 85 16917344836488964453
150020 25 17967532341965985213
15064981 113 14273453639809056219
15142383 8 9007052466303164686
15152005 290 18337112397768145844
15183329 4 17561076990854034765
15352257 5 18412544302068768043
16067689 302 18341897410954605973
18335252 98 18410294730672852005
18608769 82 18411416237313739815
20157964 124 18408888417764864580
20511986 3 12251908118052946465
21049683 271 18342176699741332865
21150785 3 18412263951956796497
21774942 28 12468625102756592943
21792965 169 18343305842954061118
22149856 69 17346324730444785834
23389318 12 18336543910846590133
23424782 7 18408323302219329321
23522609 53 17845674572235666976
23569917 315 18198346161577885742
24771750 20 18046070620937634988
335352 9 18337680725220172510
3552219 110 17846508036562019537
4073 2 18259992586378165955
4093350 32 14476946914567524320
4149490 64 18408318874920723282
445580 167 18408601491593681125
44880568 143 17385443177050864181
45377200 153 16988567956450319591
4625314 4 18337671910866008589
4760202 70 18339641269319452901
5381727 24 18333726923923670832
5470011 282 18335416872504616293
6057620 51 18412831299920176296
636783 267 18270127932398197243
9831232 110 17914905227605092974
9896288 288 17274551906757679953
9962374 69 18335136441827794826
999808 66 18413109468620842567

> <PUBCHEM_SHAPE_MULTIPOLES>
627.71
29.49
3.39
0.99
25.81
1.02
-0.01
10.3
-3.73
-4.07
-0.01
1.24
-0.14
-1.5

> <PUBCHEM_SHAPE_SELFOVERLAP>
1341.603

> <PUBCHEM_SHAPE_VOLUME>
355.2

> <PUBCHEM_COORDINATE_TYPE>
2
5
10

$$$$