11687939
  -OEChem-03242010093D

 40 42  0     0  0  0  0  0  0999 V2000
    6.1831   -0.1090   -0.1179 O   0  0  0  0  0  0  0  0  0  0  0  0
   -4.1386   -2.4530    0.3093 O   0  0  0  0  0  0  0  0  0  0  0  0
   -4.6196    2.2436   -0.3931 O   0  0  0  0  0  0  0  0  0  0  0  0
   -0.1860    0.3473    0.1084 C   0  0  0  0  0  0  0  0  0  0  0  0
    2.0403   -0.5583   -0.2670 C   0  0  0  0  0  0  0  0  0  0  0  0
    2.6044    0.6494    0.2083 C   0  0  0  0  0  0  0  0  0  0  0  0
   -1.6237    0.1924    0.0569 C   0  0  0  0  0  0  0  0  0  0  0  0
    0.6432   -0.6936   -0.3106 C   0  0  0  0  0  0  0  0  0  0  0  0
    0.3685    1.5352    0.5754 C   0  0  0  0  0  0  0  0  0  0  0  0
    1.7545    1.6868    0.6255 C   0  0  0  0  0  0  0  0  0  0  0  0
    2.8904   -1.5955   -0.6845 C   0  0  0  0  0  0  0  0  0  0  0  0
    4.0015    0.7848    0.2520 C   0  0  0  0  0  0  0  0  0  0  0  0
   -2.4383    1.3062   -0.1458 C   0  0  0  0  0  0  0  0  0  0  0  0
   -2.1949   -1.0709    0.2098 C   0  0  0  0  0  0  0  0  0  0  0  0
    4.8311   -0.2560   -0.1666 C   0  0  0  0  0  0  0  0  0  0  0  0
    4.2764   -1.4438   -0.6339 C   0  0  0  0  0  0  0  0  0  0  0  0
   -3.5809   -1.2204    0.1602 C   0  0  0  0  0  0  0  0  0  0  0  0
   -3.8243    1.1568   -0.1955 C   0  0  0  0  0  0  0  0  0  0  0  0
   -4.3956   -0.1065   -0.0424 C   0  0  0  0  0  0  0  0  0  0  0  0
    6.6841    1.1341    0.3716 C   0  0  0  0  0  0  0  0  0  0  0  0
   -3.2474   -3.5485    0.5132 C   0  0  0  0  0  0  0  0  0  0  0  0
   -6.0281    2.0188   -0.4332 C   0  0  0  0  0  0  0  0  0  0  0  0
    0.2355   -1.6180   -0.7152 H   0  0  0  0  0  0  0  0  0  0  0  0
   -0.2361    2.3605    0.9413 H   0  0  0  0  0  0  0  0  0  0  0  0
    2.1655    2.6218    1.0007 H   0  0  0  0  0  0  0  0  0  0  0  0
    2.4798   -2.5331   -1.0534 H   0  0  0  0  0  0  0  0  0  0  0  0
    4.3886    1.7291    0.6237 H   0  0  0  0  0  0  0  0  0  0  0  0
   -2.0317    2.3025   -0.2997 H   0  0  0  0  0  0  0  0  0  0  0  0
   -1.5464   -1.9153    0.4097 H   0  0  0  0  0  0  0  0  0  0  0  0
    4.9178   -2.2576   -0.9612 H   0  0  0  0  0  0  0  0  0  0  0  0
   -5.4650   -0.2876   -0.0712 H   0  0  0  0  0  0  0  0  0  0  0  0
    7.7771    1.0757    0.3408 H   0  0  0  0  0  0  0  0  0  0  0  0
    6.4035    1.2979    1.4177 H   0  0  0  0  0  0  0  0  0  0  0  0
    6.3916    1.9690   -0.2742 H   0  0  0  0  0  0  0  0  0  0  0  0
   -2.5854   -3.6968   -0.3468 H   0  0  0  0  0  0  0  0  0  0  0  0
   -3.8616   -4.4510    0.5999 H   0  0  0  0  0  0  0  0  0  0  0  0
   -2.6954   -3.4491    1.4539 H   0  0  0  0  0  0  0  0  0  0  0  0
   -6.4022    1.6373    0.5229 H   0  0  0  0  0  0  0  0  0  0  0  0
   -6.3096    1.3776   -1.2754 H   0  0  0  0  0  0  0  0  0  0  0  0
   -6.5056    2.9902   -0.5980 H   0  0  0  0  0  0  0  0  0  0  0  0
  1 15  1  0  0  0  0
  1 20  1  0  0  0  0
  2 17  1  0  0  0  0
  2 21  1  0  0  0  0
  3 18  1  0  0  0  0
  3 22  1  0  0  0  0
  4  7  1  0  0  0  0
  4  8  2  0  0  0  0
  4  9  1  0  0  0  0
  5  6  2  0  0  0  0
  5  8  1  0  0  0  0
  5 11  1  0  0  0  0
  6 10  1  0  0  0  0
  6 12  1  0  0  0  0
  7 13  2  0  0  0  0
  7 14  1  0  0  0  0
  8 23  1  0  0  0  0
  9 10  2  0  0  0  0
  9 24  1  0  0  0  0
 10 25  1  0  0  0  0
 11 16  2  0  0  0  0
 11 26  1  0  0  0  0
 12 15  2  0  0  0  0
 12 27  1  0  0  0  0
 13 18  1  0  0  0  0
 13 28  1  0  0  0  0
 14 17  2  0  0  0  0
 14 29  1  0  0  0  0
 15 16  1  0  0  0  0
 16 30  1  0  0  0  0
 17 19  1  0  0  0  0
 18 19  2  0  0  0  0
 19 31  1  0  0  0  0
 20 32  1  0  0  0  0
 20 33  1  0  0  0  0
 20 34  1  0  0  0  0
 21 35  1  0  0  0  0
 21 36  1  0  0  0  0
 21 37  1  0  0  0  0
 22 38  1  0  0  0  0
 22 39  1  0  0  0  0
 22 40  1  0  0  0  0
M  END
> <PUBCHEM_COMPOUND_CID>
11687939

> <PUBCHEM_CONFORMER_RMSD>
0.6

> <PUBCHEM_CONFORMER_DIVERSEORDER>
7
5
2
4
8
6
1
3

> <PUBCHEM_MMFF94_PARTIAL_CHARGES>
27
1 -0.36
10 -0.15
11 -0.15
12 -0.15
13 -0.15
14 -0.15
15 0.08
16 -0.15
17 0.08
18 0.08
19 -0.15
2 -0.36
20 0.28
21 0.28
22 0.28
23 0.15
24 0.15
25 0.15
26 0.15
27 0.15
28 0.15
29 0.15
3 -0.36
30 0.15
31 0.15
8 -0.15
9 -0.15

> <PUBCHEM_EFFECTIVE_ROTOR_COUNT>
4

> <PUBCHEM_PHARMACOPHORE_FEATURES>
6
1 1 acceptor
1 2 acceptor
1 3 acceptor
6 4 5 6 8 9 10 rings
6 5 6 11 12 15 16 rings
6 7 13 14 17 18 19 rings

> <PUBCHEM_HEAVY_ATOM_COUNT>
22

> <PUBCHEM_ATOM_DEF_STEREO_COUNT>
0

> <PUBCHEM_ATOM_UDEF_STEREO_COUNT>
0

> <PUBCHEM_BOND_DEF_STEREO_COUNT>
0

> <PUBCHEM_BOND_UDEF_STEREO_COUNT>
0

> <PUBCHEM_ISOTOPIC_ATOM_COUNT>
0

> <PUBCHEM_COMPONENT_COUNT>
1

> <PUBCHEM_CACTVS_TAUTO_COUNT>
1

> <PUBCHEM_CONFORMER_ID>
00B2580300000007

> <PUBCHEM_MMFF94_ENERGY>
99.4284

> <PUBCHEM_FEATURE_SELFOVERLAP>
30.474

> <PUBCHEM_SHAPE_FINGERPRINT>
10366900 7 17131828733580489923
10411042 1 17975980088194253139
105312 117 17750222626886162181
10835480 77 18342171168218548544
10906281 52 17773891817481066409
11405975 8 18410575080605651233
11719270 70 18201432533681978566
11796584 16 18409730638775523562
12236239 1 17167582674272873384
12403259 415 18201996685598099264
12616971 3 16515411771931815950
12788726 201 17773312331861377713
13583140 156 18131629019251231605
13760787 19 18186517683239247466
14341114 176 18340776965629913672
14790565 3 17835244437567703361
15042514 8 18190468341295252979
15196674 1 18412826880693681718
15788980 27 18113623382459280520
17844677 252 18336553818761453456
17980427 23 17603874441851915390
18222031 100 13901896791952012224
19141452 34 18334860498225129141
200 152 17418370273131411437
20645477 56 18334857187111454757
20645477 70 17631732656016151198
20681677 155 18259985951033124755
21033648 29 17917415558363188568
21065198 57 18411418431793913377
21065201 7 18335131020750255689
21150785 3 17060328626493118741
21236236 1 18411699907124181839
21267235 1 18337960081754710451
21279426 13 18339646620384798030
21421861 104 17678447563901888810
21709351 56 18409725201088262948
220451 1 17821446838149329050
221490 88 18268433601679530306
2215653 11 18130221562774102725
23402539 116 17022902354590055580
23559900 14 18341887506749998088
26918003 58 18343863299274973400
300161 21 18336542737782467268
3004659 81 18262521369429400158
335352 9 18411418406425322389
34934 24 18340763763122128326
3545911 37 18413108342548250057
4073 2 18333735736569230458
4214541 1 18410293614297957089
4921388 177 17095816502667248083
5104073 3 18342738507712533882
5283173 99 18337107865363935624
542803 24 17022908934406113076
59755656 215 18340771425591561638
59755656 520 18261667092049545535
633830 44 16950290623555190373
67856867 119 18187932858311457372
9709674 26 18339923826612142659

> <PUBCHEM_SHAPE_MULTIPOLES>
435.14
14.18
2.66
0.74
7.52
1.66
0
-2.95
0.8
-3.89
-0.25
0.08
0.03
1.59

> <PUBCHEM_SHAPE_SELFOVERLAP>
955.919

> <PUBCHEM_SHAPE_VOLUME>
237.8

> <PUBCHEM_COORDINATE_TYPE>
2
5
10

$$$$