56945418
  -OEChem-03242010103D

 44 46  0     0  0  0  0  0  0999 V2000
    5.2131   -2.6934   -0.6208 O   0  0  0  0  0  0  0  0  0  0  0  0
    0.3814   -1.5298    0.2485 O   0  0  0  0  0  0  0  0  0  0  0  0
    5.1891    1.8002    1.0350 O   0  0  0  0  0  0  0  0  0  0  0  0
    6.5924   -0.4448    0.2249 O   0  0  0  0  0  0  0  0  0  0  0  0
   -0.1673    4.1005    0.6369 O   0  5  0  0  0  0  0  0  0  0  0  0
   -0.1063    3.8033   -1.5372 O   0  0  0  0  0  0  0  0  0  0  0  0
    0.3569    0.8068   -0.0065 N   0  0  0  0  0  0  0  0  0  0  0  0
   -0.5280    3.4939   -0.3985 N   0  3  0  0  0  0  0  0  0  0  0  0
   -3.2972    0.3389   -0.0447 C   0  0  0  0  0  0  0  0  0  0  0  0
   -1.0068    1.1064   -0.0855 C   0  0  0  0  0  0  0  0  0  0  0  0
   -1.9310    0.0682    0.0306 C   0  0  0  0  0  0  0  0  0  0  0  0
   -1.4489    2.4154   -0.2769 C   0  0  0  0  0  0  0  0  0  0  0  0
   -4.2560   -0.7381    0.0744 C   0  0  0  0  0  0  0  0  0  0  0  0
   -3.7394    1.6480   -0.2361 C   0  0  0  0  0  0  0  0  0  0  0  0
   -2.8153    2.6863   -0.3522 C   0  0  0  0  0  0  0  0  0  0  0  0
    2.4395   -0.4481    0.1713 C   0  0  0  0  0  0  0  0  0  0  0  0
    0.9531   -0.4493    0.1505 C   0  0  0  0  0  0  0  0  0  0  0  0
    3.1431   -1.5812   -0.2373 C   0  0  0  0  0  0  0  0  0  0  0  0
   -4.7527   -1.0938    1.3283 C   0  0  0  0  0  0  0  0  0  0  0  0
   -4.6836   -1.4206   -1.0643 C   0  0  0  0  0  0  0  0  0  0  0  0
    3.1308    0.6858    0.5980 C   0  0  0  0  0  0  0  0  0  0  0  0
    4.5378   -1.5803   -0.2192 C   0  0  0  0  0  0  0  0  0  0  0  0
    4.5256    0.6865    0.6162 C   0  0  0  0  0  0  0  0  0  0  0  0
    5.2291   -0.4465    0.2075 C   0  0  0  0  0  0  0  0  0  0  0  0
   -5.6771   -2.1322    1.4436 C   0  0  0  0  0  0  0  0  0  0  0  0
   -5.6080   -2.4588   -0.9493 C   0  0  0  0  0  0  0  0  0  0  0  0
   -6.1047   -2.8146    0.3047 C   0  0  0  0  0  0  0  0  0  0  0  0
    4.4306   -3.8089   -1.0420 C   0  0  0  0  0  0  0  0  0  0  0  0
   -1.6610   -0.9663    0.1864 H   0  0  0  0  0  0  0  0  0  0  0  0
   -4.8009    1.8763   -0.2973 H   0  0  0  0  0  0  0  0  0  0  0  0
    0.9695    1.6054   -0.1353 H   0  0  0  0  0  0  0  0  0  0  0  0
   -3.1751    3.7015   -0.5012 H   0  0  0  0  0  0  0  0  0  0  0  0
    2.5600   -2.4339   -0.5676 H   0  0  0  0  0  0  0  0  0  0  0  0
    2.6132    1.5696    0.9599 H   0  0  0  0  0  0  0  0  0  0  0  0
   -4.4298   -0.5723    2.2263 H   0  0  0  0  0  0  0  0  0  0  0  0
   -4.3063   -1.1562   -2.0494 H   0  0  0  0  0  0  0  0  0  0  0  0
   -6.0638   -2.4093    2.4199 H   0  0  0  0  0  0  0  0  0  0  0  0
   -5.9410   -2.9903   -1.8359 H   0  0  0  0  0  0  0  0  0  0  0  0
   -6.8243   -3.6231    0.3943 H   0  0  0  0  0  0  0  0  0  0  0  0
    4.5423    2.4854    1.2757 H   0  0  0  0  0  0  0  0  0  0  0  0
    6.8944    0.4218    0.5481 H   0  0  0  0  0  0  0  0  0  0  0  0
    3.8158   -4.2032   -0.2256 H   0  0  0  0  0  0  0  0  0  0  0  0
    3.8410   -3.5749   -1.9351 H   0  0  0  0  0  0  0  0  0  0  0  0
    5.1294   -4.6036   -1.3238 H   0  0  0  0  0  0  0  0  0  0  0  0
  1 22  1  0  0  0  0
  1 28  1  0  0  0  0
  2 17  2  0  0  0  0
  3 23  1  0  0  0  0
  3 40  1  0  0  0  0
  4 24  1  0  0  0  0
  4 41  1  0  0  0  0
  5  8  1  0  0  0  0
  6  8  2  0  0  0  0
  7 10  1  0  0  0  0
  7 17  1  0  0  0  0
  7 31  1  0  0  0  0
  8 12  1  0  0  0  0
  9 11  2  0  0  0  0
  9 13  1  0  0  0  0
  9 14  1  0  0  0  0
 10 11  1  0  0  0  0
 10 12  2  0  0  0  0
 11 29  1  0  0  0  0
 12 15  1  0  0  0  0
 13 19  2  0  0  0  0
 13 20  1  0  0  0  0
 14 15  2  0  0  0  0
 14 30  1  0  0  0  0
 15 32  1  0  0  0  0
 16 17  1  0  0  0  0
 16 18  1  0  0  0  0
 16 21  2  0  0  0  0
 18 22  2  0  0  0  0
 18 33  1  0  0  0  0
 19 25  1  0  0  0  0
 19 35  1  0  0  0  0
 20 26  2  0  0  0  0
 20 36  1  0  0  0  0
 21 23  1  0  0  0  0
 21 34  1  0  0  0  0
 22 24  1  0  0  0  0
 23 24  2  0  0  0  0
 25 27  2  0  0  0  0
 25 37  1  0  0  0  0
 26 27  1  0  0  0  0
 26 38  1  0  0  0  0
 27 39  1  0  0  0  0
 28 42  1  0  0  0  0
 28 43  1  0  0  0  0
 28 44  1  0  0  0  0
M  CHG  2   5  -1   8   1
M  END
> <PUBCHEM_COMPOUND_CID>
56945418

> <PUBCHEM_CONFORMER_RMSD>
0.8

> <PUBCHEM_CONFORMER_DIVERSEORDER>
3
25
18
14
26
8
16
19
12
20
15
9
11
7
23
21
10
17
13
5
24
22
6
4
2
1

> <PUBCHEM_MMFF94_PARTIAL_CHARGES>
39
1 -0.36
10 0.12
11 -0.15
12 0.13
14 -0.15
15 -0.15
16 0.09
17 0.54
18 -0.15
19 -0.15
2 -0.57
20 -0.15
21 -0.15
22 0.08
23 0.08
24 0.08
25 -0.15
26 -0.15
27 -0.15
28 0.28
29 0.15
3 -0.53
30 0.15
31 0.37
32 0.15
33 0.15
34 0.15
35 0.15
36 0.15
37 0.15
38 0.15
39 0.15
4 -0.53
40 0.45
41 0.45
5 -0.52
6 -0.52
7 -0.55
8 0.91

> <PUBCHEM_EFFECTIVE_ROTOR_COUNT>
6

> <PUBCHEM_PHARMACOPHORE_FEATURES>
11
1 1 acceptor
1 2 acceptor
1 3 donor
1 4 donor
1 5 acceptor
1 5 anion
1 6 acceptor
1 7 donor
6 13 19 20 25 26 27 rings
6 16 18 21 22 23 24 rings
6 9 10 11 12 14 15 rings

> <PUBCHEM_HEAVY_ATOM_COUNT>
28

> <PUBCHEM_ATOM_DEF_STEREO_COUNT>
0

> <PUBCHEM_ATOM_UDEF_STEREO_COUNT>
0

> <PUBCHEM_BOND_DEF_STEREO_COUNT>
0

> <PUBCHEM_BOND_UDEF_STEREO_COUNT>
0

> <PUBCHEM_ISOTOPIC_ATOM_COUNT>
0

> <PUBCHEM_COMPONENT_COUNT>
1

> <PUBCHEM_CACTVS_TAUTO_COUNT>
22

> <PUBCHEM_CONFORMER_ID>
0364EB0A00000003

> <PUBCHEM_MMFF94_ENERGY>
108.4191

> <PUBCHEM_FEATURE_SELFOVERLAP>
55.908

> <PUBCHEM_SHAPE_FINGERPRINT>
11763715 3 18191609491881715220
12166972 35 17530965821287012700
12403259 226 18340764837090825152
12422481 6 17560807593483856831
12516196 113 18336826485145199691
12623949 98 18059869350115816326
12730499 353 18272652372841966410
13544653 18 18408605885682607325
13690498 29 18197511631882561126
13782708 43 18343301431980975338
13989917 61 18049162473610232419
14347332 77 18338232640116018738
14950920 106 16702299096527000787
15361156 5 18189918442960869252
15927050 60 17403179690843919844
17349148 13 17385733464978062242
17492 89 18339923697937469998
17844677 252 18271811185631197818
1813 80 18270414874889224695
18608769 82 18411700955296415360
19611394 137 17897454011135242504
20101258 96 18261118470002009169
221490 88 18269837523915929026
22149856 69 18341624753719899273
22393880 68 18117556236825934522
23559900 14 18195237828750691216
24771750 20 17248940173998284101
25025965 108 18198038353186356111
314194 84 18267868457340757399
329604 57 18260269689241374341
4073 2 18337392630454016938
50009960 94 17971452032786080234
5104073 3 18342172211805340290
6431902 208 18409447003356617759
7970288 3 18339360885507956999

> <PUBCHEM_SHAPE_MULTIPOLES>
531.05
15.59
4.53
1.03
4.1
2.36
0.02
-14.65
1.66
-0.72
-1.23
-0.69
-0.16
1.91

> <PUBCHEM_SHAPE_SELFOVERLAP>
1165.277

> <PUBCHEM_SHAPE_VOLUME>
286.8

> <PUBCHEM_COORDINATE_TYPE>
2
5
10

$$$$