56946834
  -OEChem-03242010103D

 50 52  0     0  0  0  0  0  0999 V2000
    7.7537    1.3936    1.4921 F   0  0  0  0  0  0  0  0  0  0  0  0
    7.5599   -2.2523   -1.5246 F   0  0  0  0  0  0  0  0  0  0  0  0
   -5.2151    2.1756   -0.7648 O   0  0  0  0  0  0  0  0  0  0  0  0
   -6.2587   -2.2404    0.7680 O   0  0  0  0  0  0  0  0  0  0  0  0
   -7.0848    0.3086    0.0648 O   0  0  0  0  0  0  0  0  0  0  0  0
   -1.3394   -2.2545   -0.3534 O   0  0  0  0  0  0  0  0  0  0  0  0
    0.5547    3.0838   -0.6160 O   0  5  0  0  0  0  0  0  0  0  0  0
    0.5322    2.7201    1.5488 O   0  0  0  0  0  0  0  0  0  0  0  0
   -0.7295   -0.0068   -0.0355 N   0  0  0  0  0  0  0  0  0  0  0  0
    0.8070    2.3653    0.3789 N   0  3  0  0  0  0  0  0  0  0  0  0
    3.4542   -0.2002   -0.0239 C   0  0  0  0  0  0  0  0  0  0  0  0
    0.6683   -0.0518   -0.0286 C   0  0  0  0  0  0  0  0  0  0  0  0
    1.4277    1.1007    0.1730 C   0  0  0  0  0  0  0  0  0  0  0  0
    2.8207    1.0264    0.1754 C   0  0  0  0  0  0  0  0  0  0  0  0
    4.8988   -0.2781   -0.0217 C   0  0  0  0  0  0  0  0  0  0  0  0
   -3.0626   -0.7084   -0.1252 C   0  0  0  0  0  0  0  0  0  0  0  0
    2.6947   -1.3528   -0.2256 C   0  0  0  0  0  0  0  0  0  0  0  0
    1.3019   -1.2785   -0.2278 C   0  0  0  0  0  0  0  0  0  0  0  0
   -1.6228   -1.0723   -0.1919 C   0  0  0  0  0  0  0  0  0  0  0  0
   -4.0012   -1.6515    0.2935 C   0  0  0  0  0  0  0  0  0  0  0  0
   -3.4748    0.5761   -0.4802 C   0  0  0  0  0  0  0  0  0  0  0  0
   -4.8257    0.9175   -0.4164 C   0  0  0  0  0  0  0  0  0  0  0  0
   -5.3521   -1.3101    0.3571 C   0  0  0  0  0  0  0  0  0  0  0  0
   -5.7644   -0.0257    0.0021 C   0  0  0  0  0  0  0  0  0  0  0  0
    5.5457   -1.2461   -0.7901 C   0  0  0  0  0  0  0  0  0  0  0  0
    5.6448    0.6139    0.7488 C   0  0  0  0  0  0  0  0  0  0  0  0
    7.0375    0.5378    0.7511 C   0  0  0  0  0  0  0  0  0  0  0  0
    6.9385   -1.3222   -0.7877 C   0  0  0  0  0  0  0  0  0  0  0  0
    7.6844   -0.4303   -0.0170 C   0  0  0  0  0  0  0  0  0  0  0  0
   -4.1924    3.0783   -1.1813 C   0  0  0  0  0  0  0  0  0  0  0  0
   -6.5365   -2.3011    2.1657 C   0  0  0  0  0  0  0  0  0  0  0  0
   -7.8648    0.0853   -1.1076 C   0  0  0  0  0  0  0  0  0  0  0  0
    3.3850    1.9474    0.3042 H   0  0  0  0  0  0  0  0  0  0  0  0
    3.1442   -2.3336   -0.3549 H   0  0  0  0  0  0  0  0  0  0  0  0
    0.7947   -2.2179   -0.3898 H   0  0  0  0  0  0  0  0  0  0  0  0
   -1.1180    0.9103    0.1583 H   0  0  0  0  0  0  0  0  0  0  0  0
   -3.6932   -2.6549    0.5776 H   0  0  0  0  0  0  0  0  0  0  0  0
   -2.7344    1.2717   -0.8530 H   0  0  0  0  0  0  0  0  0  0  0  0
    5.0093   -1.9427   -1.4283 H   0  0  0  0  0  0  0  0  0  0  0  0
    5.1853    1.3643    1.3861 H   0  0  0  0  0  0  0  0  0  0  0  0
    8.7687   -0.4898   -0.0148 H   0  0  0  0  0  0  0  0  0  0  0  0
   -3.4712    3.2730   -0.3799 H   0  0  0  0  0  0  0  0  0  0  0  0
   -3.7118    2.7450   -2.1075 H   0  0  0  0  0  0  0  0  0  0  0  0
   -4.6795    4.0332   -1.4054 H   0  0  0  0  0  0  0  0  0  0  0  0
   -5.6307   -2.5541    2.7259 H   0  0  0  0  0  0  0  0  0  0  0  0
   -6.9437   -1.3487    2.5196 H   0  0  0  0  0  0  0  0  0  0  0  0
   -7.2815   -3.0837    2.3332 H   0  0  0  0  0  0  0  0  0  0  0  0
   -8.8910    0.4014   -0.9014 H   0  0  0  0  0  0  0  0  0  0  0  0
   -7.8724   -0.9776   -1.3687 H   0  0  0  0  0  0  0  0  0  0  0  0
   -7.4791    0.6749   -1.9453 H   0  0  0  0  0  0  0  0  0  0  0  0
  1 27  1  0  0  0  0
  2 28  1  0  0  0  0
  3 22  1  0  0  0  0
  3 30  1  0  0  0  0
  4 23  1  0  0  0  0
  4 31  1  0  0  0  0
  5 24  1  0  0  0  0
  5 32  1  0  0  0  0
  6 19  2  0  0  0  0
  7 10  1  0  0  0  0
  8 10  2  0  0  0  0
  9 12  1  0  0  0  0
  9 19  1  0  0  0  0
  9 36  1  0  0  0  0
 10 13  1  0  0  0  0
 11 14  2  0  0  0  0
 11 15  1  0  0  0  0
 11 17  1  0  0  0  0
 12 13  2  0  0  0  0
 12 18  1  0  0  0  0
 13 14  1  0  0  0  0
 14 33  1  0  0  0  0
 15 25  2  0  0  0  0
 15 26  1  0  0  0  0
 16 19  1  0  0  0  0
 16 20  2  0  0  0  0
 16 21  1  0  0  0  0
 17 18  2  0  0  0  0
 17 34  1  0  0  0  0
 18 35  1  0  0  0  0
 20 23  1  0  0  0  0
 20 37  1  0  0  0  0
 21 22  2  0  0  0  0
 21 38  1  0  0  0  0
 22 24  1  0  0  0  0
 23 24  2  0  0  0  0
 25 28  1  0  0  0  0
 25 39  1  0  0  0  0
 26 27  2  0  0  0  0
 26 40  1  0  0  0  0
 27 29  1  0  0  0  0
 28 29  2  0  0  0  0
 29 41  1  0  0  0  0
 30 42  1  0  0  0  0
 30 43  1  0  0  0  0
 30 44  1  0  0  0  0
 31 45  1  0  0  0  0
 31 46  1  0  0  0  0
 31 47  1  0  0  0  0
 32 48  1  0  0  0  0
 32 49  1  0  0  0  0
 32 50  1  0  0  0  0
M  CHG  2   7  -1  10   1
M  END
> <PUBCHEM_COMPOUND_CID>
56946834

> <PUBCHEM_CONFORMER_RMSD>
1

> <PUBCHEM_CONFORMER_DIVERSEORDER>
1
5
3
4
9
8
7
6
2

> <PUBCHEM_MMFF94_PARTIAL_CHARGES>
39
1 -0.19
10 0.91
12 0.12
13 0.13
14 -0.15
16 0.09
17 -0.15
18 -0.15
19 0.54
2 -0.19
20 -0.15
21 -0.15
22 0.08
23 0.08
24 0.08
25 -0.15
26 -0.15
27 0.19
28 0.19
29 -0.15
3 -0.36
30 0.28
31 0.28
32 0.28
33 0.15
34 0.15
35 0.15
36 0.37
37 0.15
38 0.15
39 0.15
4 -0.36
40 0.15
41 0.15
5 -0.36
6 -0.57
7 -0.52
8 -0.52
9 -0.55

> <PUBCHEM_EFFECTIVE_ROTOR_COUNT>
8

> <PUBCHEM_PHARMACOPHORE_FEATURES>
11
1 3 acceptor
1 4 acceptor
1 5 acceptor
1 6 acceptor
1 7 acceptor
1 7 anion
1 8 acceptor
1 9 donor
6 11 12 13 14 17 18 rings
6 15 25 26 27 28 29 rings
6 16 20 21 22 23 24 rings

> <PUBCHEM_HEAVY_ATOM_COUNT>
32

> <PUBCHEM_ATOM_DEF_STEREO_COUNT>
0

> <PUBCHEM_ATOM_UDEF_STEREO_COUNT>
0

> <PUBCHEM_BOND_DEF_STEREO_COUNT>
0

> <PUBCHEM_BOND_UDEF_STEREO_COUNT>
0

> <PUBCHEM_ISOTOPIC_ATOM_COUNT>
0

> <PUBCHEM_COMPONENT_COUNT>
1

> <PUBCHEM_CACTVS_TAUTO_COUNT>
2

> <PUBCHEM_CONFORMER_ID>
0364F09200000001

> <PUBCHEM_MMFF94_ENERGY>
138.369

> <PUBCHEM_FEATURE_SELFOVERLAP>
55.915

> <PUBCHEM_SHAPE_FINGERPRINT>
10 15 18410006676418115458
100830 39 18334856082803803845
10299344 5 16153425060387879458
11315181 36 18060137644560003259
11646440 116 18202008749902543610
12166972 35 18186809105624226276
12516196 113 18273495684884717864
12645989 146 18342173427735070775
13402501 40 18410853248800545637
13685833 64 18413111679917219690
13811026 1 18412260644583675398
14294032 229 17533501128225415204
14856354 85 16732990829365147643
14933364 13 18411138035080905886
15131766 46 14547014452709825930
15183329 4 18187083931701139082
15419008 47 18342451543293553577
15419008 91 18337655469884842916
15849732 13 18202562890825384222
18393751 57 16113154665858671753
18608769 82 18335140934046886859
19611394 137 17896052099692617707
19841028 212 17750225900021546546
20721686 56 18336541733562336977
21267235 1 18411708690036916006
21279426 13 18341329990457129180
21315759 40 16298383574008684098
21792934 111 18272360959315882992
21792961 116 18340206293573409006
23559900 14 18131060588877433849
3004659 81 18259988176232333334
3178227 256 18338247058358090155
335352 9 18413106181910415431
3383291 50 18260832656396693515
350125 39 18409168844384420277
4073 2 18041284352163223226
59755656 215 18339644443564450678

> <PUBCHEM_SHAPE_MULTIPOLES>
598.82
24.09
2.77
1.15
10.69
1.43
0.31
-6.35
0.21
-2.6
0.08
-0.15
-0.12
3.93

> <PUBCHEM_SHAPE_SELFOVERLAP>
1304.841

> <PUBCHEM_SHAPE_VOLUME>
328.4

> <PUBCHEM_COORDINATE_TYPE>
2
5
10

$$$$