56945201
  -OEChem-03242010103D

 46 48  0     0  0  0  0  0  0999 V2000
    6.1899    1.8528    0.5182 O   0  0  0  0  0  0  0  0  0  0  0  0
    6.8851   -0.7784   -0.0499 O   0  0  0  0  0  0  0  0  0  0  0  0
    1.2601    2.0282   -0.5477 O   0  0  0  0  0  0  0  0  0  0  0  0
   -0.8743   -3.2249   -0.4807 O   0  5  0  0  0  0  0  0  0  0  0  0
   -0.8060   -2.7385    1.6588 O   0  0  0  0  0  0  0  0  0  0  0  0
    0.5543   -0.1677   -0.0942 N   0  0  0  0  0  0  0  0  0  0  0  0
   -1.0807   -2.4392    0.4735 N   0  3  0  0  0  0  0  0  0  0  0  0
   -3.6157    0.2159   -0.0486 C   0  0  0  0  0  0  0  0  0  0  0  0
   -0.8398   -0.0589   -0.0755 C   0  0  0  0  0  0  0  0  0  0  0  0
   -1.6471   -1.1621    0.2012 C   0  0  0  0  0  0  0  0  0  0  0  0
   -3.0351   -1.0247    0.2146 C   0  0  0  0  0  0  0  0  0  0  0  0
   -5.0554    0.3589   -0.0360 C   0  0  0  0  0  0  0  0  0  0  0  0
   -2.8083    1.3192   -0.3252 C   0  0  0  0  0  0  0  0  0  0  0  0
   -1.4203    1.1819   -0.3386 C   0  0  0  0  0  0  0  0  0  0  0  0
    2.9152    0.4209   -0.2484 C   0  0  0  0  0  0  0  0  0  0  0  0
    1.4924    0.8455   -0.3211 C   0  0  0  0  0  0  0  0  0  0  0  0
    3.9012    1.3425    0.1041 C   0  0  0  0  0  0  0  0  0  0  0  0
   -5.7122    0.6959    1.1474 C   0  0  0  0  0  0  0  0  0  0  0  0
   -5.7865    0.1598   -1.2070 C   0  0  0  0  0  0  0  0  0  0  0  0
    3.2641   -0.8993   -0.5327 C   0  0  0  0  0  0  0  0  0  0  0  0
    5.2360    0.9437    0.1723 C   0  0  0  0  0  0  0  0  0  0  0  0
    5.5849   -0.3765   -0.1119 C   0  0  0  0  0  0  0  0  0  0  0  0
    4.5989   -1.2981   -0.4645 C   0  0  0  0  0  0  0  0  0  0  0  0
   -7.1002    0.8340    1.1600 C   0  0  0  0  0  0  0  0  0  0  0  0
   -7.1745    0.2979   -1.1946 C   0  0  0  0  0  0  0  0  0  0  0  0
   -7.8313    0.6349   -0.0111 C   0  0  0  0  0  0  0  0  0  0  0  0
    5.7494    3.1813    0.7930 C   0  0  0  0  0  0  0  0  0  0  0  0
    7.1561   -2.1450   -0.3553 C   0  0  0  0  0  0  0  0  0  0  0  0
   -3.6639   -1.8870    0.4305 H   0  0  0  0  0  0  0  0  0  0  0  0
   -3.2463    2.2927   -0.5339 H   0  0  0  0  0  0  0  0  0  0  0  0
   -0.8746    2.0849   -0.5682 H   0  0  0  0  0  0  0  0  0  0  0  0
    0.9064   -1.0902    0.1398 H   0  0  0  0  0  0  0  0  0  0  0  0
    3.5781    2.3543    0.3231 H   0  0  0  0  0  0  0  0  0  0  0  0
   -5.1575    0.8546    2.0693 H   0  0  0  0  0  0  0  0  0  0  0  0
   -5.2903   -0.1034   -2.1382 H   0  0  0  0  0  0  0  0  0  0  0  0
    2.5368   -1.6410   -0.8492 H   0  0  0  0  0  0  0  0  0  0  0  0
    4.7974   -2.3364   -0.7068 H   0  0  0  0  0  0  0  0  0  0  0  0
   -7.6118    1.0964    2.0814 H   0  0  0  0  0  0  0  0  0  0  0  0
   -7.7439    0.1429   -2.1064 H   0  0  0  0  0  0  0  0  0  0  0  0
   -8.9120    0.7423   -0.0015 H   0  0  0  0  0  0  0  0  0  0  0  0
    6.6380    3.7682    1.0483 H   0  0  0  0  0  0  0  0  0  0  0  0
    5.0867    3.2152    1.6645 H   0  0  0  0  0  0  0  0  0  0  0  0
    5.3035    3.6504   -0.0907 H   0  0  0  0  0  0  0  0  0  0  0  0
    8.2368   -2.2895   -0.2540 H   0  0  0  0  0  0  0  0  0  0  0  0
    6.8995   -2.3852   -1.3927 H   0  0  0  0  0  0  0  0  0  0  0  0
    6.6768   -2.8215    0.3605 H   0  0  0  0  0  0  0  0  0  0  0  0
  1 21  1  0  0  0  0
  1 27  1  0  0  0  0
  2 22  1  0  0  0  0
  2 28  1  0  0  0  0
  3 16  2  0  0  0  0
  4  7  1  0  0  0  0
  5  7  2  0  0  0  0
  6  9  1  0  0  0  0
  6 16  1  0  0  0  0
  6 32  1  0  0  0  0
  7 10  1  0  0  0  0
  8 11  2  0  0  0  0
  8 12  1  0  0  0  0
  8 13  1  0  0  0  0
  9 10  2  0  0  0  0
  9 14  1  0  0  0  0
 10 11  1  0  0  0  0
 11 29  1  0  0  0  0
 12 18  2  0  0  0  0
 12 19  1  0  0  0  0
 13 14  2  0  0  0  0
 13 30  1  0  0  0  0
 14 31  1  0  0  0  0
 15 16  1  0  0  0  0
 15 17  2  0  0  0  0
 15 20  1  0  0  0  0
 17 21  1  0  0  0  0
 17 33  1  0  0  0  0
 18 24  1  0  0  0  0
 18 34  1  0  0  0  0
 19 25  2  0  0  0  0
 19 35  1  0  0  0  0
 20 23  2  0  0  0  0
 20 36  1  0  0  0  0
 21 22  2  0  0  0  0
 22 23  1  0  0  0  0
 23 37  1  0  0  0  0
 24 26  2  0  0  0  0
 24 38  1  0  0  0  0
 25 26  1  0  0  0  0
 25 39  1  0  0  0  0
 26 40  1  0  0  0  0
 27 41  1  0  0  0  0
 27 42  1  0  0  0  0
 27 43  1  0  0  0  0
 28 44  1  0  0  0  0
 28 45  1  0  0  0  0
 28 46  1  0  0  0  0
M  CHG  2   4  -1   7   1
M  END
> <PUBCHEM_COMPOUND_CID>
56945201

> <PUBCHEM_CONFORMER_RMSD>
0.8

> <PUBCHEM_CONFORMER_DIVERSEORDER>
3
24
18
13
23
16
20
8
10
19
12
21
15
9
26
22
11
25
27
7
14
17
1
5
6
4
2

> <PUBCHEM_MMFF94_PARTIAL_CHARGES>
38
1 -0.36
10 0.13
11 -0.15
13 -0.15
14 -0.15
15 0.09
16 0.54
17 -0.15
18 -0.15
19 -0.15
2 -0.36
20 -0.15
21 0.08
22 0.08
23 -0.15
24 -0.15
25 -0.15
26 -0.15
27 0.28
28 0.28
29 0.15
3 -0.57
30 0.15
31 0.15
32 0.37
33 0.15
34 0.15
35 0.15
36 0.15
37 0.15
38 0.15
39 0.15
4 -0.52
40 0.15
5 -0.52
6 -0.55
7 0.91
9 0.12

> <PUBCHEM_EFFECTIVE_ROTOR_COUNT>
7

> <PUBCHEM_PHARMACOPHORE_FEATURES>
10
1 1 acceptor
1 2 acceptor
1 3 acceptor
1 4 acceptor
1 4 anion
1 5 acceptor
1 6 donor
6 12 18 19 24 25 26 rings
6 15 17 20 21 22 23 rings
6 8 9 10 11 13 14 rings

> <PUBCHEM_HEAVY_ATOM_COUNT>
28

> <PUBCHEM_ATOM_DEF_STEREO_COUNT>
0

> <PUBCHEM_ATOM_UDEF_STEREO_COUNT>
0

> <PUBCHEM_BOND_DEF_STEREO_COUNT>
0

> <PUBCHEM_BOND_UDEF_STEREO_COUNT>
0

> <PUBCHEM_ISOTOPIC_ATOM_COUNT>
0

> <PUBCHEM_COMPONENT_COUNT>
1

> <PUBCHEM_CACTVS_TAUTO_COUNT>
2

> <PUBCHEM_CONFORMER_ID>
0364EA3100000003

> <PUBCHEM_MMFF94_ENERGY>
118.6642

> <PUBCHEM_FEATURE_SELFOVERLAP>
50.834

> <PUBCHEM_SHAPE_FINGERPRINT>
10 15 17822288028711156744
10299344 5 17847059978323732757
10835480 77 18269551796837543848
10906281 52 18199485383512418221
11135926 11 18409163282813378255
11315181 36 17846498154559169021
11456790 92 18201444644487005616
12107698 1 17060617793940983753
12236239 1 17989488511789852301
12838862 33 18262221275368131910
13533116 47 18131351878223635042
13914758 101 17346324751914074515
14251764 18 18202846547635054684
14347424 109 18343016697413886952
14849402 71 18059295473992830569
14856354 85 14707217621818918089
15131766 46 15552163806341148000
15183329 4 18410291389299228075
15419008 47 17676200264882309309
15849732 13 17385727993079068287
19315958 150 18409731798627670392
20157964 124 18272933825863558812
20567600 254 18040432171023015303
21033648 29 18059001925983571040
21130935 74 18342458174785939426
21236236 1 18337954606067482075
21267235 1 18337677417272369572
21521721 280 18413392038333919235
21781051 124 17605300478395210883
21792934 111 18412255113041052864
21859007 373 17604128364381969901
22224240 67 18334015004333268251
23536379 177 17132116819165872997
23559900 14 18269268118041463432
23569917 315 18409455812762316415
249057 3 18335423474375459694
2838139 119 18341891866331155463
3004659 81 18260547810455281612
3178227 256 18260561021848810401
335352 9 18408888434243042774
3633792 109 18341611482318660553
397830 11 17460046282140695969
4073 2 18189336935013002914
4408954 64 14928210795615392979
5104073 3 18336829796533272010
5758199 1 18413393133861997817
59755656 215 18114462262555270751
59755656 520 18411412926110336839
6138700 20 18335421236265118135
6669772 16 18409731716923714935

> <PUBCHEM_SHAPE_MULTIPOLES>
536.92
21.87
2.56
0.98
4.22
0.64
0.12
-4.68
0.03
-4.1
0.55
1.19
0.09
0.87

> <PUBCHEM_SHAPE_SELFOVERLAP>
1170.219

> <PUBCHEM_SHAPE_VOLUME>
291.6

> <PUBCHEM_COORDINATE_TYPE>
2
5
10

$$$$