57385023
  -OEChem-03242010103D

 50 52  0     1  0  0  0  0  0999 V2000
    4.9316   -1.5012    1.4049 O   0  0  0  0  0  0  0  0  0  0  0  0
    2.0928   -1.8403    0.5436 O   0  0  0  0  0  0  0  0  0  0  0  0
   -3.3704   -2.2027    1.2402 O   0  0  0  0  0  0  0  0  0  0  0  0
    2.7474    1.2705    0.2649 N   0  0  0  0  0  0  0  0  0  0  0  0
    3.6086    2.2400   -0.4265 C   0  0  0  0  0  0  0  0  0  0  0  0
    1.6686    1.9469    0.9989 C   0  0  0  0  0  0  0  0  0  0  0  0
    0.8011    2.7836    0.0572 C   0  0  0  0  0  0  0  0  0  0  0  0
    2.8045    3.0861   -1.4149 C   0  0  0  0  0  0  0  0  0  0  0  0
    1.6403    3.7878   -0.7248 C   0  0  0  0  0  0  0  0  0  0  0  0
    3.5385    0.4381    1.1708 C   0  0  0  0  0  0  0  0  0  0  0  0
    4.2161   -0.7237    0.4405 C   0  0  2  0  0  0  0  0  0  0  0  0
    3.2320   -1.6372   -0.2869 C   0  0  0  0  0  0  0  0  0  0  0  0
    0.8967   -2.0422   -0.0917 C   0  0  0  0  0  0  0  0  0  0  0  0
   -0.2925   -1.6391    0.5154 C   0  0  0  0  0  0  0  0  0  0  0  0
    0.8678   -2.6506   -1.3464 C   0  0  0  0  0  0  0  0  0  0  0  0
   -1.5108   -1.8443   -0.1322 C   0  0  0  0  0  0  0  0  0  0  0  0
   -0.3504   -2.8561   -1.9941 C   0  0  0  0  0  0  0  0  0  0  0  0
   -1.5397   -2.4529   -1.3870 C   0  0  0  0  0  0  0  0  0  0  0  0
   -2.7507   -1.4237    0.5007 C   0  0  0  0  0  0  0  0  0  0  0  0
   -3.3312   -0.0619    0.2988 C   0  0  0  0  0  0  0  0  0  0  0  0
   -4.5240    0.2890    0.9309 C   0  0  0  0  0  0  0  0  0  0  0  0
   -2.6791    0.8592   -0.5208 C   0  0  0  0  0  0  0  0  0  0  0  0
   -5.0649    1.5611    0.7433 C   0  0  0  0  0  0  0  0  0  0  0  0
   -3.2198    2.1312   -0.7084 C   0  0  0  0  0  0  0  0  0  0  0  0
   -4.4127    2.4822   -0.0764 C   0  0  0  0  0  0  0  0  0  0  0  0
    4.3910    1.7225   -0.9928 H   0  0  0  0  0  0  0  0  0  0  0  0
    4.1109    2.9009    0.2925 H   0  0  0  0  0  0  0  0  0  0  0  0
    2.0785    2.5877    1.7907 H   0  0  0  0  0  0  0  0  0  0  0  0
    1.0209    1.2055    1.4818 H   0  0  0  0  0  0  0  0  0  0  0  0
    0.2818    2.1211   -0.6459 H   0  0  0  0  0  0  0  0  0  0  0  0
    0.0306    3.3105    0.6311 H   0  0  0  0  0  0  0  0  0  0  0  0
    3.4586    3.8300   -1.8837 H   0  0  0  0  0  0  0  0  0  0  0  0
    2.4205    2.4454   -2.2190 H   0  0  0  0  0  0  0  0  0  0  0  0
    2.0272    4.5530   -0.0408 H   0  0  0  0  0  0  0  0  0  0  0  0
    1.0181    4.3018   -1.4656 H   0  0  0  0  0  0  0  0  0  0  0  0
    4.2893    1.0289    1.7142 H   0  0  0  0  0  0  0  0  0  0  0  0
    2.9093    0.0165    1.9675 H   0  0  0  0  0  0  0  0  0  0  0  0
    4.9656   -0.3560   -0.2688 H   0  0  0  0  0  0  0  0  0  0  0  0
    3.6900   -2.6081   -0.5072 H   0  0  0  0  0  0  0  0  0  0  0  0
    2.9569   -1.1396   -1.2260 H   0  0  0  0  0  0  0  0  0  0  0  0
    5.4064   -2.2011    0.9249 H   0  0  0  0  0  0  0  0  0  0  0  0
   -0.2640   -1.1654    1.4939 H   0  0  0  0  0  0  0  0  0  0  0  0
    1.7669   -3.0054   -1.8413 H   0  0  0  0  0  0  0  0  0  0  0  0
   -0.3739   -3.3358   -2.9683 H   0  0  0  0  0  0  0  0  0  0  0  0
   -2.4833   -2.6193   -1.9003 H   0  0  0  0  0  0  0  0  0  0  0  0
   -5.0522   -0.4090    1.5747 H   0  0  0  0  0  0  0  0  0  0  0  0
   -1.7507    0.6229   -1.0313 H   0  0  0  0  0  0  0  0  0  0  0  0
   -5.9937    1.8347    1.2354 H   0  0  0  0  0  0  0  0  0  0  0  0
   -2.7117    2.8487   -1.3462 H   0  0  0  0  0  0  0  0  0  0  0  0
   -4.8335    3.4728   -0.2224 H   0  0  0  0  0  0  0  0  0  0  0  0
  1 11  1  0  0  0  0
  1 41  1  0  0  0  0
  2 12  1  0  0  0  0
  2 13  1  0  0  0  0
  3 19  2  0  0  0  0
  4  5  1  0  0  0  0
  4  6  1  0  0  0  0
  4 10  1  0  0  0  0
  5  8  1  0  0  0  0
  5 26  1  0  0  0  0
  5 27  1  0  0  0  0
  6  7  1  0  0  0  0
  6 28  1  0  0  0  0
  6 29  1  0  0  0  0
  7  9  1  0  0  0  0
  7 30  1  0  0  0  0
  7 31  1  0  0  0  0
  8  9  1  0  0  0  0
  8 32  1  0  0  0  0
  8 33  1  0  0  0  0
  9 34  1  0  0  0  0
  9 35  1  0  0  0  0
 10 11  1  0  0  0  0
 10 36  1  0  0  0  0
 10 37  1  0  0  0  0
 11 12  1  0  0  0  0
 11 38  1  0  0  0  0
 12 39  1  0  0  0  0
 12 40  1  0  0  0  0
 13 14  1  0  0  0  0
 13 15  2  0  0  0  0
 14 16  2  0  0  0  0
 14 42  1  0  0  0  0
 15 17  1  0  0  0  0
 15 43  1  0  0  0  0
 16 18  1  0  0  0  0
 16 19  1  0  0  0  0
 17 18  2  0  0  0  0
 17 44  1  0  0  0  0
 18 45  1  0  0  0  0
 19 20  1  0  0  0  0
 20 21  2  0  0  0  0
 20 22  1  0  0  0  0
 21 23  1  0  0  0  0
 21 46  1  0  0  0  0
 22 24  2  0  0  0  0
 22 47  1  0  0  0  0
 23 25  2  0  0  0  0
 23 48  1  0  0  0  0
 24 25  1  0  0  0  0
 24 49  1  0  0  0  0
 25 50  1  0  0  0  0
M  END
> <PUBCHEM_COMPOUND_CID>
57385023

> <PUBCHEM_CONFORMER_RMSD>
1

> <PUBCHEM_CONFORMER_DIVERSEORDER>
1
19
84
59
144
150
65
34
158
43
159
52
88
153
133
42
70
94
32
139
39
132
99
90
124
75
145
111
138
125
109
41
169
142
118
165
119
148
113
140
66
31
37
17
68
130
163
152
51
57
82
95
141
3
131
126
38
89
14
112
154
92
77
30
63
83
45
127
24
33
78
137
26
110
135
167
116
8
91
164
28
161
4
98
46
136
117
10
79
97
93
56
76
50
60
80
58
54
74
156
62
6
27
96
81
64
9
147
47
108
120
157
25
29
48
55
36
35
166
134
114
149
143
121
101
16
162
53
20
151
61
40
44
2
72
67
160
71
107
11
5
23
69
21
103
100
129
18
122
86
106
73
146
13
128
102
7
170
85
155
22
104
105
168
15
115
123
12
87
49

> <PUBCHEM_MMFF94_PARTIAL_CHARGES>
32
1 -0.68
10 0.27
11 0.28
12 0.28
13 0.08
14 -0.15
15 -0.15
16 0.09
17 -0.15
18 -0.15
19 0.4
2 -0.36
20 0.09
21 -0.15
22 -0.15
23 -0.15
24 -0.15
25 -0.15
3 -0.57
4 -0.81
41 0.4
42 0.15
43 0.15
44 0.15
45 0.15
46 0.15
47 0.15
48 0.15
49 0.15
5 0.27
50 0.15
6 0.27

> <PUBCHEM_EFFECTIVE_ROTOR_COUNT>
8.2

> <PUBCHEM_PHARMACOPHORE_FEATURES>
8
1 1 acceptor
1 1 donor
1 2 acceptor
1 3 acceptor
1 4 cation
6 13 14 15 16 17 18 rings
6 20 21 22 23 24 25 rings
6 4 5 6 7 8 9 rings

> <PUBCHEM_HEAVY_ATOM_COUNT>
25

> <PUBCHEM_ATOM_DEF_STEREO_COUNT>
0

> <PUBCHEM_ATOM_UDEF_STEREO_COUNT>
1

> <PUBCHEM_BOND_DEF_STEREO_COUNT>
0

> <PUBCHEM_BOND_UDEF_STEREO_COUNT>
0

> <PUBCHEM_ISOTOPIC_ATOM_COUNT>
0

> <PUBCHEM_COMPONENT_COUNT>
1

> <PUBCHEM_CACTVS_TAUTO_COUNT>
1

> <PUBCHEM_CONFORMER_ID>
036BA03F00000001

> <PUBCHEM_MMFF94_ENERGY>
67.1533

> <PUBCHEM_FEATURE_SELFOVERLAP>
40.598

> <PUBCHEM_SHAPE_FINGERPRINT>
10616163 171 18264213689111594769
10871710 139 17619074266614050957
11513181 2 18202008745597222230
11828042 279 18188203201519550877
12403259 118 18411414029394887267
12422481 6 18195498538119572480
12633257 1 18260263019188792787
12978246 48 18412266138074194289
13075007 39 18042148517105731313
13122387 1 17330554241968165901
13140716 1 18410285917721889664
13402501 40 18193835946972021509
13583140 156 17750220448868822043
14117953 113 18195808457831383620
14251764 38 18410292527876940317
14790565 3 17974854175291693268
14950920 106 17604704607153384818
150020 26 18413392046428105306
151778 21 18338527429449200881
15238133 3 18187087222427199426
15403338 16 17388522827367718563
15475509 84 17250605474595146290
1601671 61 18339924814491492130
16110190 28 18408595968787984280
16760501 71 18338527356967046033
17093844 170 18051123697136738864
17859628 37 18411979126921198654
17921350 177 17751617901961242292
18785283 64 18337410265927623729
19930381 70 16896234517450180243
20567600 299 18273490174014818640
21033648 29 17916849271257634378
21475661 188 18335421210479399019
21860390 5 18127412250593582517
21864079 5 18193557993915661110
22113638 7 18341323435910189628
23227448 37 18412261736091268943
238918 7 17911501126546132630
3298306 158 18411703162725606621
338550 245 18262522610448290460
3680242 22 18118969091913288592
474 4 18199748047154513627
5048184 11 18268154342927608461
5081480 168 17413346522657112359
508706 21 18261384508528401189
6287921 2 17915188923042419527

> <PUBCHEM_SHAPE_MULTIPOLES>
491.9
9.4
4.78
1.38
2.92
1.64
0.29
3.86
-3.12
-1.36
1.92
-0.34
-0.52
-0.78

> <PUBCHEM_SHAPE_SELFOVERLAP>
1039.185

> <PUBCHEM_SHAPE_VOLUME>
275.5

> <PUBCHEM_COORDINATE_TYPE>
2
5
10

$$$$