118708524
  -OEChem-03242010103D

 50 52  0     0  0  0  0  0  0999 V2000
    7.8134    2.1993   -0.2177 F   0  0  0  0  0  0  0  0  0  0  0  0
    7.5942   -2.5089    0.2475 F   0  0  0  0  0  0  0  0  0  0  0  0
   -6.2105   -2.1622    0.1985 O   0  0  0  0  0  0  0  0  0  0  0  0
   -5.1744    2.5010   -0.1484 O   0  0  0  0  0  0  0  0  0  0  0  0
   -7.0421    0.4800    0.1631 O   0  0  0  0  0  0  0  0  0  0  0  0
   -1.2838   -1.8790   -0.8522 O   0  0  0  0  0  0  0  0  0  0  0  0
   -0.6843    0.2144    0.0335 N   0  0  0  0  0  0  0  0  0  0  0  0
    0.8312    2.3948    1.0464 N   0  0  0  0  0  0  0  0  0  0  0  0
    3.4996    0.0419    0.0294 C   0  0  0  0  0  0  0  0  0  0  0  0
    0.7128    0.1722    0.0392 C   0  0  0  0  0  0  0  0  0  0  0  0
    1.4626    1.2391    0.5343 C   0  0  0  0  0  0  0  0  0  0  0  0
    2.8560    1.1739    0.5296 C   0  0  0  0  0  0  0  0  0  0  0  0
    4.9449   -0.0253    0.0235 C   0  0  0  0  0  0  0  0  0  0  0  0
   -3.0146   -0.4460   -0.2499 C   0  0  0  0  0  0  0  0  0  0  0  0
    2.7498   -1.0249   -0.4659 C   0  0  0  0  0  0  0  0  0  0  0  0
    1.3564   -0.9598   -0.4608 C   0  0  0  0  0  0  0  0  0  0  0  0
   -1.5730   -0.7778   -0.3965 C   0  0  0  0  0  0  0  0  0  0  0  0
   -3.4296    0.8855   -0.2683 C   0  0  0  0  0  0  0  0  0  0  0  0
   -3.9523   -1.4668   -0.0928 C   0  0  0  0  0  0  0  0  0  0  0  0
   -5.3050   -1.1559    0.0456 C   0  0  0  0  0  0  0  0  0  0  0  0
   -4.7823    1.1965   -0.1298 C   0  0  0  0  0  0  0  0  0  0  0  0
   -5.7200    0.1757    0.0270 C   0  0  0  0  0  0  0  0  0  0  0  0
    5.5854   -1.2590    0.1397 C   0  0  0  0  0  0  0  0  0  0  0  0
    5.6974    1.1428   -0.0978 C   0  0  0  0  0  0  0  0  0  0  0  0
    7.0907    1.0773   -0.1026 C   0  0  0  0  0  0  0  0  0  0  0  0
    6.9788   -1.3244    0.1348 C   0  0  0  0  0  0  0  0  0  0  0  0
    7.7314   -0.1563    0.0138 C   0  0  0  0  0  0  0  0  0  0  0  0
   -5.7026   -3.4950    0.2066 C   0  0  0  0  0  0  0  0  0  0  0  0
   -5.5050    3.0599   -1.4183 C   0  0  0  0  0  0  0  0  0  0  0  0
   -7.5250    0.6868    1.4886 C   0  0  0  0  0  0  0  0  0  0  0  0
    3.4105    2.0089    0.9514 H   0  0  0  0  0  0  0  0  0  0  0  0
    3.2084   -1.9118   -0.8949 H   0  0  0  0  0  0  0  0  0  0  0  0
    0.8557   -1.8225   -0.8750 H   0  0  0  0  0  0  0  0  0  0  0  0
   -1.0818    1.0494    0.4460 H   0  0  0  0  0  0  0  0  0  0  0  0
   -2.7355    1.7063   -0.4252 H   0  0  0  0  0  0  0  0  0  0  0  0
   -3.5783   -2.4846   -0.0770 H   0  0  0  0  0  0  0  0  0  0  0  0
    5.0427   -2.1916    0.2661 H   0  0  0  0  0  0  0  0  0  0  0  0
    5.2440    2.1223   -0.2209 H   0  0  0  0  0  0  0  0  0  0  0  0
    1.4000    3.1554    1.3957 H   0  0  0  0  0  0  0  0  0  0  0  0
   -0.1720    2.4987    1.0463 H   0  0  0  0  0  0  0  0  0  0  0  0
    8.8161   -0.2071    0.0105 H   0  0  0  0  0  0  0  0  0  0  0  0
   -5.2376   -3.7565   -0.7501 H   0  0  0  0  0  0  0  0  0  0  0  0
   -5.0356   -3.6681    1.0580 H   0  0  0  0  0  0  0  0  0  0  0  0
   -6.5596   -4.1645    0.3352 H   0  0  0  0  0  0  0  0  0  0  0  0
   -4.6365    3.0390   -2.0842 H   0  0  0  0  0  0  0  0  0  0  0  0
   -6.3403    2.5177   -1.8727 H   0  0  0  0  0  0  0  0  0  0  0  0
   -5.8048    4.1005   -1.2670 H   0  0  0  0  0  0  0  0  0  0  0  0
   -8.5921    0.9184    1.4319 H   0  0  0  0  0  0  0  0  0  0  0  0
   -7.0091    1.5296    1.9595 H   0  0  0  0  0  0  0  0  0  0  0  0
   -7.3951   -0.2173    2.0918 H   0  0  0  0  0  0  0  0  0  0  0  0
  1 25  1  0  0  0  0
  2 26  1  0  0  0  0
  3 20  1  0  0  0  0
  3 28  1  0  0  0  0
  4 21  1  0  0  0  0
  4 29  1  0  0  0  0
  5 22  1  0  0  0  0
  5 30  1  0  0  0  0
  6 17  2  0  0  0  0
  7 10  1  0  0  0  0
  7 17  1  0  0  0  0
  7 34  1  0  0  0  0
  8 11  1  0  0  0  0
  8 39  1  0  0  0  0
  8 40  1  0  0  0  0
  9 12  2  0  0  0  0
  9 13  1  0  0  0  0
  9 15  1  0  0  0  0
 10 11  2  0  0  0  0
 10 16  1  0  0  0  0
 11 12  1  0  0  0  0
 12 31  1  0  0  0  0
 13 23  2  0  0  0  0
 13 24  1  0  0  0  0
 14 17  1  0  0  0  0
 14 18  2  0  0  0  0
 14 19  1  0  0  0  0
 15 16  2  0  0  0  0
 15 32  1  0  0  0  0
 16 33  1  0  0  0  0
 18 21  1  0  0  0  0
 18 35  1  0  0  0  0
 19 20  2  0  0  0  0
 19 36  1  0  0  0  0
 20 22  1  0  0  0  0
 21 22  2  0  0  0  0
 23 26  1  0  0  0  0
 23 37  1  0  0  0  0
 24 25  2  0  0  0  0
 24 38  1  0  0  0  0
 25 27  1  0  0  0  0
 26 27  2  0  0  0  0
 27 41  1  0  0  0  0
 28 42  1  0  0  0  0
 28 43  1  0  0  0  0
 28 44  1  0  0  0  0
 29 45  1  0  0  0  0
 29 46  1  0  0  0  0
 29 47  1  0  0  0  0
 30 48  1  0  0  0  0
 30 49  1  0  0  0  0
 30 50  1  0  0  0  0
M  END
> <PUBCHEM_COMPOUND_CID>
118708524

> <PUBCHEM_CONFORMER_RMSD>
0.8

> <PUBCHEM_CONFORMER_DIVERSEORDER>
3
13
17
12
9
5
8
6
15
18
14
16
4
11
2
10
7
1

> <PUBCHEM_MMFF94_PARTIAL_CHARGES>
39
1 -0.19
10 0.12
11 0.1
12 -0.15
14 0.09
15 -0.15
16 -0.15
17 0.54
18 -0.15
19 -0.15
2 -0.19
20 0.08
21 0.08
22 0.08
23 -0.15
24 -0.15
25 0.19
26 0.19
27 -0.15
28 0.28
29 0.28
3 -0.36
30 0.28
31 0.15
32 0.15
33 0.15
34 0.37
35 0.15
36 0.15
37 0.15
38 0.15
39 0.4
4 -0.36
40 0.4
41 0.15
5 -0.36
6 -0.57
7 -0.55
8 -0.9

> <PUBCHEM_EFFECTIVE_ROTOR_COUNT>
7

> <PUBCHEM_PHARMACOPHORE_FEATURES>
10
1 3 acceptor
1 4 acceptor
1 5 acceptor
1 6 acceptor
1 7 donor
1 8 cation
1 8 donor
6 13 23 24 25 26 27 rings
6 14 18 19 20 21 22 rings
6 9 10 11 12 15 16 rings

> <PUBCHEM_HEAVY_ATOM_COUNT>
30

> <PUBCHEM_ATOM_DEF_STEREO_COUNT>
0

> <PUBCHEM_ATOM_UDEF_STEREO_COUNT>
0

> <PUBCHEM_BOND_DEF_STEREO_COUNT>
0

> <PUBCHEM_BOND_UDEF_STEREO_COUNT>
0

> <PUBCHEM_ISOTOPIC_ATOM_COUNT>
0

> <PUBCHEM_COMPONENT_COUNT>
1

> <PUBCHEM_CACTVS_TAUTO_COUNT>
17

> <PUBCHEM_CONFORMER_ID>
0713592C00000003

> <PUBCHEM_MMFF94_ENERGY>
137.6082

> <PUBCHEM_FEATURE_SELFOVERLAP>
50.758

> <PUBCHEM_SHAPE_FINGERPRINT>
10 15 18334861606511210329
100830 39 18409446947506134229
102385 1 15694094015266372740
10299344 5 18334859428614813346
10319926 262 18341037597468129459
11315181 36 18334012826716426647
11524674 6 16917349268420467247
11719270 70 18059855039706856846
12082328 90 18410853282907147943
12166972 35 18336266833494962228
12236239 1 18335420167102968022
13533116 47 13829867781533298052
13885169 127 18334856112630951047
14251764 18 18343864437167026254
14849402 71 18338520866823763480
14856354 85 16153718608918351867
14933364 13 18409448090061847820
15021287 119 17676491665796738309
15183329 4 18336259072272150610
1577012 14 18411416233103071374
15890870 6 18195524789224513649
15927050 60 18410289220415830754
16989713 51 17488454360168398791
18608769 82 18411420644076786187
19841028 212 18263076614750160994
20281389 69 18409448081282353380
21130935 74 18410855460804051458
21267235 1 18341898531951814286
21315763 28 18408884048933649190
21792934 111 18201990007525249912
21792961 116 18272932679080968860
23522609 53 18194993882829487025
23536379 177 18334293163252341312
23559900 14 18271236231270909201
23569943 247 17024575695846083082
3004659 81 18334856100743061826
335352 9 18201717374978885557
4073 2 18187651331431200714
4098825 35 18407759244201340536
59755656 520 18186516627010329451
6328613 192 18411417302413187012
9831232 110 18269843017691557918
9953998 17 18408328783409781233
999808 66 18187654643235945531

> <PUBCHEM_SHAPE_MULTIPOLES>
569.4
25.25
2.81
0.85
15.7
0.31
-0.04
0.61
-2.01
-3.4
0.27
-0.93
-0.31
0.67

> <PUBCHEM_SHAPE_SELFOVERLAP>
1240.484

> <PUBCHEM_SHAPE_VOLUME>
312.9

> <PUBCHEM_COORDINATE_TYPE>
2
5
10

$$$$