144
 OpenBabel03292022003D

 85 87  0  0  1  0  0  0  0  0999 V2000
    2.7861    0.4652   -5.3729 C   0  0  0  0  0  0  0  0  0  0  0  0
    2.3146    0.7530   -4.0549 O   0  0  0  0  0  0  0  0  0  0  0  0
    2.9816    0.1199   -3.0343 C   0  0  0  0  0  0  0  0  0  0  0  0
    4.3681   -0.0857   -3.1306 C   0  0  0  0  0  0  0  0  0  0  0  0
    5.0750   -0.8103   -2.1744 C   0  0  0  0  0  0  0  0  0  0  0  0
    6.4431   -1.1449   -2.3362 N   0  0  0  0  0  0  0  0  0  0  0  0
    7.3055   -0.5907   -3.2732 C   0  0  0  0  0  0  0  0  0  0  0  0
    7.0819    0.4241   -3.9274 O   0  0  0  0  0  0  0  0  0  0  0  0
    8.5654   -1.3259   -3.4616 C   0  0  0  0  0  0  0  0  0  0  0  0
    9.5348   -0.9018   -4.3537 C   0  0  0  0  0  0  0  0  0  0  0  0
   10.8193   -2.0184   -4.4274 S   0  0  0  0  0  0  0  0  0  0  0  0
   10.0040   -3.0233   -3.2803 C   0  0  0  0  0  0  0  0  0  0  0  0
   10.6255   -4.3638   -2.9265 C   0  0  1  0  0  0  0  0  0  0  0  0
   11.6970   -4.1616   -1.9652 N   0  0  0  0  0  0  0  0  0  0  0  0
   13.0116   -4.4474   -2.2539 C   0  0  0  0  0  0  0  0  0  0  0  0
   13.4023   -4.8354   -3.3497 O   0  0  0  0  0  0  0  0  0  0  0  0
   13.9029   -4.3033   -1.0998 C   0  0  0  0  0  0  0  0  0  0  0  0
   15.2573   -4.5726   -1.1299 C   0  0  0  0  0  0  0  0  0  0  0  0
   15.9152   -4.4784    0.4450 S   0  0  0  0  0  0  0  0  0  0  0  0
   14.3522   -4.1050    1.0711 C   0  0  0  0  0  0  0  0  0  0  0  0
   14.1118   -4.0938    2.5727 C   0  0  1  0  0  0  0  0  0  0  0  0
   14.4798   -2.7835    3.1025 N   0  0  0  0  0  0  0  0  0  0  0  0
   15.7382   -2.5605    3.5872 C   0  0  0  0  0  0  0  0  0  0  0  0
   16.5953   -3.4298    3.6601 O   0  0  0  0  0  0  0  0  0  0  0  0
   15.8862   -1.2721    3.9697 O   0  0  0  0  0  0  0  0  0  0  0  0
   17.1670   -0.8327    4.5118 C   0  0  0  0  0  0  0  0  0  0  0  0
   18.2485   -0.8473    3.4232 C   0  0  0  0  0  0  0  0  0  0  0  0
   16.9575    0.6207    4.9659 C   0  0  0  0  0  0  0  0  0  0  0  0
   17.5861   -1.6490    5.7446 C   0  0  0  0  0  0  0  0  0  0  0  0
   12.6422   -4.4759    2.9096 C   0  0  0  0  0  0  0  0  0  0  0  0
   12.3074   -5.8974    2.4224 C   0  0  0  0  0  0  0  0  0  0  0  0
   12.3670   -4.4123    4.4165 C   0  0  0  0  0  0  0  0  0  0  0  0
   13.4101   -3.9470    0.1583 N   0  0  0  0  0  0  0  0  0  0  0  0
    9.6002   -5.4353   -2.4688 C   0  0  0  0  0  0  0  0  0  0  0  0
   10.2782   -6.8043   -2.3069 C   0  0  0  0  0  0  0  0  0  0  0  0
    8.8479   -5.1081   -1.1736 C   0  0  0  0  0  0  0  0  0  0  0  0
    8.8632   -2.5313   -2.8223 N   0  0  0  0  0  0  0  0  0  0  0  0
    4.3747   -1.2739   -1.0633 C   0  0  0  0  0  0  0  0  0  0  0  0
    2.9989   -0.9940   -0.8884 C   0  0  0  0  0  0  0  0  0  0  0  0
    2.5274   -1.5028    0.3006 O   0  0  0  0  0  0  0  0  0  0  0  0
    1.1615   -1.3195    0.6494 C   0  0  0  0  0  0  0  0  0  0  0  0
    2.2820   -0.2905   -1.8836 C   0  0  0  0  0  0  0  0  0  0  0  0
    0.9576   -0.0486   -1.6343 O   0  0  0  0  0  0  0  0  0  0  0  0
    0.0897    0.3645   -2.6788 C   0  0  0  0  0  0  0  0  0  0  0  0
    1.9231    0.4541   -6.0445 H   0  0  0  0  0  0  0  0  0  0  0  0
    3.2711   -0.5151   -5.4563 H   0  0  0  0  0  0  0  0  0  0  0  0
    3.4665    1.2579   -5.6987 H   0  0  0  0  0  0  0  0  0  0  0  0
    4.8808    0.3100   -3.9986 H   0  0  0  0  0  0  0  0  0  0  0  0
    6.8387   -1.8684   -1.7446 H   0  0  0  0  0  0  0  0  0  0  0  0
    9.5220   -0.0133   -4.9710 H   0  0  0  0  0  0  0  0  0  0  0  0
   11.0689   -4.7566   -3.8524 H   0  0  0  0  0  0  0  0  0  0  0  0
   11.4947   -3.8168   -1.0318 H   0  0  0  0  0  0  0  0  0  0  0  0
   15.8625   -4.8616   -1.9783 H   0  0  0  0  0  0  0  0  0  0  0  0
   14.7591   -4.8480    3.0361 H   0  0  0  0  0  0  0  0  0  0  0  0
   13.9085   -1.9751    2.9217 H   0  0  0  0  0  0  0  0  0  0  0  0
   17.9646   -0.1984    2.5867 H   0  0  0  0  0  0  0  0  0  0  0  0
   18.3987   -1.8457    3.0026 H   0  0  0  0  0  0  0  0  0  0  0  0
   19.2114   -0.5012    3.8144 H   0  0  0  0  0  0  0  0  0  0  0  0
   16.6224    1.2510    4.1347 H   0  0  0  0  0  0  0  0  0  0  0  0
   17.8793    1.0506    5.3742 H   0  0  0  0  0  0  0  0  0  0  0  0
   16.1809    0.6812    5.7370 H   0  0  0  0  0  0  0  0  0  0  0  0
   17.8178   -2.6896    5.5025 H   0  0  0  0  0  0  0  0  0  0  0  0
   16.7812   -1.6698    6.4874 H   0  0  0  0  0  0  0  0  0  0  0  0
   18.4818   -1.2274    6.2132 H   0  0  0  0  0  0  0  0  0  0  0  0
   11.9576   -3.7724    2.4168 H   0  0  0  0  0  0  0  0  0  0  0  0
   12.9601   -6.6393    2.8958 H   0  0  0  0  0  0  0  0  0  0  0  0
   12.4161   -6.0027    1.3392 H   0  0  0  0  0  0  0  0  0  0  0  0
   11.2708   -6.1561    2.6633 H   0  0  0  0  0  0  0  0  0  0  0  0
   13.0184   -5.0998    4.9667 H   0  0  0  0  0  0  0  0  0  0  0  0
   11.3287   -4.6919    4.6280 H   0  0  0  0  0  0  0  0  0  0  0  0
   12.5199   -3.4036    4.8110 H   0  0  0  0  0  0  0  0  0  0  0  0
    8.8504   -5.5377   -3.2658 H   0  0  0  0  0  0  0  0  0  0  0  0
   10.9891   -6.8045   -1.4739 H   0  0  0  0  0  0  0  0  0  0  0  0
   10.8168   -7.0896   -3.2166 H   0  0  0  0  0  0  0  0  0  0  0  0
    9.5323   -7.5814   -2.1056 H   0  0  0  0  0  0  0  0  0  0  0  0
    9.5316   -4.9650   -0.3319 H   0  0  0  0  0  0  0  0  0  0  0  0
    8.1649   -5.9259   -0.9169 H   0  0  0  0  0  0  0  0  0  0  0  0
    8.2298   -4.2135   -1.2686 H   0  0  0  0  0  0  0  0  0  0  0  0
    4.8859   -1.8408   -0.2884 H   0  0  0  0  0  0  0  0  0  0  0  0
    0.9953   -1.8145    1.6118 H   0  0  0  0  0  0  0  0  0  0  0  0
    0.4946   -1.8024   -0.0721 H   0  0  0  0  0  0  0  0  0  0  0  0
    0.9232   -0.2601    0.7900 H   0  0  0  0  0  0  0  0  0  0  0  0
   -0.9293    0.3628   -2.2779 H   0  0  0  0  0  0  0  0  0  0  0  0
    0.1085   -0.3406   -3.5159 H   0  0  0  0  0  0  0  0  0  0  0  0
    0.2999    1.3908   -2.9937 H   0  0  0  0  0  0  0  0  0  0  0  0
  1  2  1  0  0  0  0
  1 45  1  0  0  0  0
  1 46  1  0  0  0  0
  1 47  1  0  0  0  0
  2  3  1  0  0  0  0
  3  4  1  0  0  0  0
  3 42  2  0  0  0  0
  4  5  2  0  0  0  0
  4 48  1  0  0  0  0
  5  6  1  0  0  0  0
  5 38  1  0  0  0  0
  6  7  1  0  0  0  0
  6 49  1  0  0  0  0
  7  8  2  0  0  0  0
  7  9  1  0  0  0  0
  9 10  2  0  0  0  0
  9 37  1  0  0  0  0
 10 11  1  0  0  0  0
 10 50  1  0  0  0  0
 11 12  1  0  0  0  0
 12 13  1  0  0  0  0
 12 37  2  0  0  0  0
 13 14  1  0  0  0  0
 13 34  1  0  0  0  0
 13 51  1  6  0  0  0
 14 15  1  0  0  0  0
 14 52  1  0  0  0  0
 15 16  2  0  0  0  0
 15 17  1  0  0  0  0
 17 18  2  0  0  0  0
 17 33  1  0  0  0  0
 18 19  1  0  0  0  0
 18 53  1  0  0  0  0
 19 20  1  0  0  0  0
 20 21  1  0  0  0  0
 20 33  2  0  0  0  0
 21 22  1  0  0  0  0
 21 30  1  0  0  0  0
 21 54  1  1  0  0  0
 22 23  1  0  0  0  0
 22 55  1  0  0  0  0
 23 24  2  0  0  0  0
 23 25  1  0  0  0  0
 25 26  1  0  0  0  0
 26 27  1  0  0  0  0
 26 28  1  0  0  0  0
 26 29  1  0  0  0  0
 27 56  1  0  0  0  0
 27 57  1  0  0  0  0
 27 58  1  0  0  0  0
 28 59  1  0  0  0  0
 28 60  1  0  0  0  0
 28 61  1  0  0  0  0
 29 62  1  0  0  0  0
 29 63  1  0  0  0  0
 29 64  1  0  0  0  0
 30 31  1  0  0  0  0
 30 32  1  0  0  0  0
 30 65  1  0  0  0  0
 31 66  1  0  0  0  0
 31 67  1  0  0  0  0
 31 68  1  0  0  0  0
 32 69  1  0  0  0  0
 32 70  1  0  0  0  0
 32 71  1  0  0  0  0
 34 35  1  0  0  0  0
 34 36  1  0  0  0  0
 34 72  1  0  0  0  0
 35 73  1  0  0  0  0
 35 74  1  0  0  0  0
 35 75  1  0  0  0  0
 36 76  1  0  0  0  0
 36 77  1  0  0  0  0
 36 78  1  0  0  0  0
 38 39  2  0  0  0  0
 38 79  1  0  0  0  0
 39 40  1  0  0  0  0
 39 42  1  0  0  0  0
 40 41  1  0  0  0  0
 41 80  1  0  0  0  0
 41 81  1  0  0  0  0
 41 82  1  0  0  0  0
 42 43  1  0  0  0  0
 43 44  1  0  0  0  0
 44 83  1  0  0  0  0
 44 84  1  0  0  0  0
 44 85  1  0  0  0  0
M  END
>  <Energy>
42.6373

$$$$