43815
  -OEChem-03242010103D

 44 47  0     1  0  0  0  0  0999 V2000
    1.6246    4.9026   -0.1871 F   0  0  0  0  0  0  0  0  0  0  0  0
   -0.3017   -1.8571   -0.1168 O   0  0  0  0  0  0  0  0  0  0  0  0
   -4.3727    0.3262   -1.5001 O   0  0  0  0  0  0  0  0  0  0  0  0
   -5.2213    0.3613    0.7554 O   0  0  0  0  0  0  0  0  0  0  0  0
    3.6671   -3.1817   -0.3814 N   0  0  0  0  0  0  0  0  0  0  0  0
    2.3480   -0.6677    0.3573 C   0  0  1  0  0  0  0  0  0  0  0  0
    1.9253   -1.4793   -0.8952 C   0  0  1  0  0  0  0  0  0  0  0  0
    3.8087   -0.9861    0.7283 C   0  0  0  0  0  0  0  0  0  0  0  0
    2.2557   -2.9711   -0.7023 C   0  0  0  0  0  0  0  0  0  0  0  0
    4.0394   -2.4899    0.8505 C   0  0  0  0  0  0  0  0  0  0  0  0
    0.4314   -1.3243   -1.2018 C   0  0  0  0  0  0  0  0  0  0  0  0
    2.1531    0.8325    0.2108 C   0  0  0  0  0  0  0  0  0  0  0  0
    1.7840    1.5936    1.3163 C   0  0  0  0  0  0  0  0  0  0  0  0
    2.3453    1.4373   -1.0284 C   0  0  0  0  0  0  0  0  0  0  0  0
    1.6053    2.9704    1.1816 C   0  0  0  0  0  0  0  0  0  0  0  0
    2.1668    2.8141   -1.1631 C   0  0  0  0  0  0  0  0  0  0  0  0
   -1.5349   -1.3062    0.1359 C   0  0  0  0  0  0  0  0  0  0  0  0
    1.7968    3.5808   -0.0580 C   0  0  0  0  0  0  0  0  0  0  0  0
   -2.2750   -0.7777   -0.9169 C   0  0  0  0  0  0  0  0  0  0  0  0
   -2.0193   -1.2903    1.4496 C   0  0  0  0  0  0  0  0  0  0  0  0
   -3.5073   -0.2365   -0.6133 C   0  0  0  0  0  0  0  0  0  0  0  0
   -3.9918   -0.2163    0.6748 C   0  0  0  0  0  0  0  0  0  0  0  0
   -3.2707   -0.7364    1.7300 C   0  0  0  0  0  0  0  0  0  0  0  0
   -5.4569    0.7018   -0.6262 C   0  0  0  0  0  0  0  0  0  0  0  0
    1.7213   -1.0027    1.1967 H   0  0  0  0  0  0  0  0  0  0  0  0
    2.4903   -1.1515   -1.7760 H   0  0  0  0  0  0  0  0  0  0  0  0
    4.0714   -0.5029    1.6778 H   0  0  0  0  0  0  0  0  0  0  0  0
    4.4891   -0.5724   -0.0285 H   0  0  0  0  0  0  0  0  0  0  0  0
    1.6424   -3.4211    0.0878 H   0  0  0  0  0  0  0  0  0  0  0  0
    2.0254   -3.5214   -1.6221 H   0  0  0  0  0  0  0  0  0  0  0  0
    5.0979   -2.6807    1.0588 H   0  0  0  0  0  0  0  0  0  0  0  0
    3.4742   -2.8977    1.6972 H   0  0  0  0  0  0  0  0  0  0  0  0
    0.1824   -1.8891   -2.1087 H   0  0  0  0  0  0  0  0  0  0  0  0
    0.2029   -0.2686   -1.3846 H   0  0  0  0  0  0  0  0  0  0  0  0
    4.2382   -2.8258   -1.1482 H   0  0  0  0  0  0  0  0  0  0  0  0
    1.6332    1.1301    2.2874 H   0  0  0  0  0  0  0  0  0  0  0  0
    2.6602    0.8875   -1.9078 H   0  0  0  0  0  0  0  0  0  0  0  0
    1.3172    3.5675    2.0418 H   0  0  0  0  0  0  0  0  0  0  0  0
    2.3214    3.2909   -2.1265 H   0  0  0  0  0  0  0  0  0  0  0  0
   -1.9443   -0.7968   -1.9488 H   0  0  0  0  0  0  0  0  0  0  0  0
   -1.4236   -1.7079    2.2569 H   0  0  0  0  0  0  0  0  0  0  0  0
   -3.6557   -0.7182    2.7432 H   0  0  0  0  0  0  0  0  0  0  0  0
   -6.3694    0.1957   -0.9616 H   0  0  0  0  0  0  0  0  0  0  0  0
   -5.6078    1.7849   -0.6998 H   0  0  0  0  0  0  0  0  0  0  0  0
  1 18  1  0  0  0  0
  2 11  1  0  0  0  0
  2 17  1  0  0  0  0
  3 21  1  0  0  0  0
  3 24  1  0  0  0  0
  4 22  1  0  0  0  0
  4 24  1  0  0  0  0
  5  9  1  0  0  0  0
  5 10  1  0  0  0  0
  5 35  1  0  0  0  0
  6  7  1  0  0  0  0
  6  8  1  0  0  0  0
  6 12  1  0  0  0  0
  6 25  1  0  0  0  0
  7  9  1  0  0  0  0
  7 11  1  0  0  0  0
  7 26  1  0  0  0  0
  8 10  1  0  0  0  0
  8 27  1  0  0  0  0
  8 28  1  0  0  0  0
  9 29  1  0  0  0  0
  9 30  1  0  0  0  0
 10 31  1  0  0  0  0
 10 32  1  0  0  0  0
 11 33  1  0  0  0  0
 11 34  1  0  0  0  0
 12 13  2  0  0  0  0
 12 14  1  0  0  0  0
 13 15  1  0  0  0  0
 13 36  1  0  0  0  0
 14 16  2  0  0  0  0
 14 37  1  0  0  0  0
 15 18  2  0  0  0  0
 15 38  1  0  0  0  0
 16 18  1  0  0  0  0
 16 39  1  0  0  0  0
 17 19  2  0  0  0  0
 17 20  1  0  0  0  0
 19 21  1  0  0  0  0
 19 40  1  0  0  0  0
 20 23  2  0  0  0  0
 20 41  1  0  0  0  0
 21 22  2  0  0  0  0
 22 23  1  0  0  0  0
 23 42  1  0  0  0  0
 24 43  1  0  0  0  0
 24 44  1  0  0  0  0
M  END
> <PUBCHEM_COMPOUND_CID>
43815

> <PUBCHEM_CONFORMER_RMSD>
0.8

> <PUBCHEM_CONFORMER_DIVERSEORDER>
1
80
37
74
66
9
21
46
77
68
55
18
16
58
10
56
38
45
35
61
28
41
29
67
13
78
50
60
14
63
4
62
57
59
39
54
11
27
44
72
64
32
75
70
19
76
33
71
17
31
2
26
12
52
20
47
3
42
34
36
15
49
65
25
30
79
5
7
53
81
69
6
40
23
48
51
43
24
8
73
22

> <PUBCHEM_MMFF94_PARTIAL_CHARGES>
30
1 -0.19
10 0.27
11 0.28
12 -0.14
13 -0.15
14 -0.15
15 -0.15
16 -0.15
17 0.08
18 0.19
19 -0.15
2 -0.36
20 -0.15
21 0.08
22 0.08
23 -0.15
24 0.56
3 -0.36
35 0.36
36 0.15
37 0.15
38 0.15
39 0.15
4 -0.36
40 0.15
41 0.15
42 0.15
5 -0.9
6 0.14
9 0.27

> <PUBCHEM_EFFECTIVE_ROTOR_COUNT>
5.8

> <PUBCHEM_PHARMACOPHORE_FEATURES>
9
1 2 acceptor
1 3 acceptor
1 4 acceptor
1 5 cation
1 5 donor
5 3 4 21 22 24 rings
6 12 13 14 15 16 18 rings
6 17 19 20 21 22 23 rings
6 5 6 7 8 9 10 rings

> <PUBCHEM_HEAVY_ATOM_COUNT>
24

> <PUBCHEM_ATOM_DEF_STEREO_COUNT>
2

> <PUBCHEM_ATOM_UDEF_STEREO_COUNT>
0

> <PUBCHEM_BOND_DEF_STEREO_COUNT>
0

> <PUBCHEM_BOND_UDEF_STEREO_COUNT>
0

> <PUBCHEM_ISOTOPIC_ATOM_COUNT>
0

> <PUBCHEM_COMPONENT_COUNT>
1

> <PUBCHEM_CACTVS_TAUTO_COUNT>
1

> <PUBCHEM_CONFORMER_ID>
0000AB2700000001

> <PUBCHEM_MMFF94_ENERGY>
63.5929

> <PUBCHEM_FEATURE_SELFOVERLAP>
45.828

> <PUBCHEM_SHAPE_FINGERPRINT>
10165383 225 17687781584065605092
10688039 33 18192710043012687766
10937287 8 17762616587383328876
11456790 92 17970069938163465873
11545043 162 17385733474058783027
11640471 11 17631445846579223678
12166972 35 18131063818872415547
12403259 327 17821996614852881314
12633257 1 17896019087655998096
12788726 201 18046062658421072290
13004483 165 18193545676308737226
13134695 92 18410852127581894862
13583140 156 18334582369102438219
14466204 15 18119240671464800795
14713325 29 16321202070081540508
14790565 3 18049158067189953932
14866123 147 16533131170434191970
151778 21 18192441972265151369
15238133 3 18117286860534479759
15295992 7 18187372017281501427
15420108 30 17913744349774591826
15463212 79 17257643951114737776
15848702 68 18410011061189535780
1601671 61 18411415146761006458
17349148 13 17560799909861209979
18335252 114 18195231232271768861
18785283 64 18337112374904983907
192875 21 18130507448792898827
20567600 299 18343295968402701729
20739085 24 18412818106407701738
21033648 29 17604414242158470781
21033650 10 15482130309534790163
21315764 21 18411980282631911689
21475661 188 18188197733471560501
21641784 216 18121241791934719654
21860390 5 18272091582312681030
23175994 123 18263088716801669535
23559900 14 18334576837094545827
3052486 1 17902232208932212008
345986 75 17463108172910785202
469060 322 11814175934554430161
474 4 18343017817893942147
508706 21 17897433996603928389
513202 73 17694792818009624134
5252454 2 17980778338960828737
57724786 102 18261120672861328669
7399639 24 17614013201669716139
7808743 9 17113543073696169692
81228 2 17833280718469226234
8509985 295 18335417928823977506
9971528 1 18130786699029745542
9981440 41 17835789069004962201

> <PUBCHEM_SHAPE_MULTIPOLES>
464.05
9.22
4.42
1.44
12.53
4.39
-0.18
-1.72
-0.31
-6.93
0.31
0.5
0.03
0.29

> <PUBCHEM_SHAPE_SELFOVERLAP>
1012.682

> <PUBCHEM_SHAPE_VOLUME>
252.1

> <PUBCHEM_COORDINATE_TYPE>
2
5
10

$$$$