154227
  -OEChem-03242010103D

 39 41  0     0  0  0  0  0  0999 V2000
   -0.9209    0.4706   -0.0140 O   0  0  0  0  0  0  0  0  0  0  0  0
    4.7196   -1.3833    0.6134 O   0  0  0  0  0  0  0  0  0  0  0  0
   -5.4059    1.9486    0.4769 O   0  0  0  0  0  0  0  0  0  0  0  0
    5.3572    1.1870   -0.2285 O   0  0  0  0  0  0  0  0  0  0  0  0
   -2.0972   -3.3880   -0.5861 O   0  0  0  0  0  0  0  0  0  0  0  0
   -0.0033   -0.5438   -0.2410 C   0  0  0  0  0  0  0  0  0  0  0  0
   -2.7261   -1.1457   -0.1851 C   0  0  0  0  0  0  0  0  0  0  0  0
    1.4029   -0.0929   -0.2359 C   0  0  0  0  0  0  0  0  0  0  0  0
   -2.2552    0.1524    0.0052 C   0  0  0  0  0  0  0  0  0  0  0  0
   -0.3318   -1.8315   -0.4312 C   0  0  0  0  0  0  0  0  0  0  0  0
   -1.7550   -2.2259   -0.4164 C   0  0  0  0  0  0  0  0  0  0  0  0
    2.4152   -0.9565    0.1898 C   0  0  0  0  0  0  0  0  0  0  0  0
   -3.1552    1.1947    0.2283 C   0  0  0  0  0  0  0  0  0  0  0  0
   -4.0970   -1.4117   -0.1543 C   0  0  0  0  0  0  0  0  0  0  0  0
    1.7271    1.1990   -0.6571 C   0  0  0  0  0  0  0  0  0  0  0  0
    3.7436   -0.5307    0.1943 C   0  0  0  0  0  0  0  0  0  0  0  0
   -4.5253    0.9333    0.2596 C   0  0  0  0  0  0  0  0  0  0  0  0
    4.0637    0.7600   -0.2269 C   0  0  0  0  0  0  0  0  0  0  0  0
   -4.9948   -0.3671    0.0687 C   0  0  0  0  0  0  0  0  0  0  0  0
    3.0554    1.6248   -0.6525 C   0  0  0  0  0  0  0  0  0  0  0  0
    5.0429   -1.3660    2.0025 C   0  0  0  0  0  0  0  0  0  0  0  0
   -4.8591    3.2529    0.6641 C   0  0  0  0  0  0  0  0  0  0  0  0
    5.5992    2.5201   -0.6738 C   0  0  0  0  0  0  0  0  0  0  0  0
    0.3864   -2.6205   -0.6211 H   0  0  0  0  0  0  0  0  0  0  0  0
    2.1973   -1.9611    0.5439 H   0  0  0  0  0  0  0  0  0  0  0  0
   -2.7314    2.1834    0.3700 H   0  0  0  0  0  0  0  0  0  0  0  0
   -4.4809   -2.4172   -0.3003 H   0  0  0  0  0  0  0  0  0  0  0  0
    0.9617    1.8902   -1.0018 H   0  0  0  0  0  0  0  0  0  0  0  0
   -6.0617   -0.5726    0.0929 H   0  0  0  0  0  0  0  0  0  0  0  0
    3.2299    2.6390   -0.9947 H   0  0  0  0  0  0  0  0  0  0  0  0
    5.3984   -0.3754    2.3033 H   0  0  0  0  0  0  0  0  0  0  0  0
    5.8416   -2.0920    2.1775 H   0  0  0  0  0  0  0  0  0  0  0  0
    4.1728   -1.6512    2.6021 H   0  0  0  0  0  0  0  0  0  0  0  0
    5.1207    3.2572   -0.0200 H   0  0  0  0  0  0  0  0  0  0  0  0
    5.3203    2.6514   -1.7249 H   0  0  0  0  0  0  0  0  0  0  0  0
    6.6788    2.6908   -0.6081 H   0  0  0  0  0  0  0  0  0  0  0  0
   -4.2334    3.3023    1.5617 H   0  0  0  0  0  0  0  0  0  0  0  0
   -5.7001    3.9357    0.8236 H   0  0  0  0  0  0  0  0  0  0  0  0
   -4.3312    3.6006   -0.2304 H   0  0  0  0  0  0  0  0  0  0  0  0
  1  6  1  0  0  0  0
  1  9  1  0  0  0  0
  2 16  1  0  0  0  0
  2 21  1  0  0  0  0
  3 17  1  0  0  0  0
  3 22  1  0  0  0  0
  4 18  1  0  0  0  0
  4 23  1  0  0  0  0
  5 11  2  0  0  0  0
  6  8  1  0  0  0  0
  6 10  2  0  0  0  0
  7  9  2  0  0  0  0
  7 11  1  0  0  0  0
  7 14  1  0  0  0  0
  8 12  2  0  0  0  0
  8 15  1  0  0  0  0
  9 13  1  0  0  0  0
 10 11  1  0  0  0  0
 10 24  1  0  0  0  0
 12 16  1  0  0  0  0
 12 25  1  0  0  0  0
 13 17  2  0  0  0  0
 13 26  1  0  0  0  0
 14 19  2  0  0  0  0
 14 27  1  0  0  0  0
 15 20  2  0  0  0  0
 15 28  1  0  0  0  0
 16 18  2  0  0  0  0
 17 19  1  0  0  0  0
 18 20  1  0  0  0  0
 19 29  1  0  0  0  0
 20 30  1  0  0  0  0
 21 31  1  0  0  0  0
 21 32  1  0  0  0  0
 21 33  1  0  0  0  0
 22 37  1  0  0  0  0
 22 38  1  0  0  0  0
 22 39  1  0  0  0  0
 23 34  1  0  0  0  0
 23 35  1  0  0  0  0
 23 36  1  0  0  0  0
M  END
> <PUBCHEM_COMPOUND_CID>
154227

> <PUBCHEM_CONFORMER_RMSD>
0.6

> <PUBCHEM_CONFORMER_DIVERSEORDER>
13
12
4
17
14
9
22
11
6
1
16
7
3
20
10
19
15
21
8
5
2
18

> <PUBCHEM_MMFF94_PARTIAL_CHARGES>
30
1 -0.16
10 -0.14
11 0.47
12 -0.15
13 -0.15
14 -0.15
15 -0.15
16 0.08
17 0.08
18 0.08
19 -0.15
2 -0.36
20 -0.15
21 0.28
22 0.28
23 0.28
24 0.15
25 0.15
26 0.15
27 0.15
28 0.15
29 0.15
3 -0.36
30 0.15
4 -0.36
5 -0.57
6 0.05
7 0.09
8 0.03
9 0.08

> <PUBCHEM_EFFECTIVE_ROTOR_COUNT>
4

> <PUBCHEM_PHARMACOPHORE_FEATURES>
8
1 1 acceptor
1 2 acceptor
1 3 acceptor
1 4 acceptor
1 5 acceptor
6 1 6 7 9 10 11 rings
6 7 9 13 14 17 19 rings
6 8 12 15 16 18 20 rings

> <PUBCHEM_HEAVY_ATOM_COUNT>
23

> <PUBCHEM_ATOM_DEF_STEREO_COUNT>
0

> <PUBCHEM_ATOM_UDEF_STEREO_COUNT>
0

> <PUBCHEM_BOND_DEF_STEREO_COUNT>
0

> <PUBCHEM_BOND_UDEF_STEREO_COUNT>
0

> <PUBCHEM_ISOTOPIC_ATOM_COUNT>
0

> <PUBCHEM_COMPONENT_COUNT>
1

> <PUBCHEM_CACTVS_TAUTO_COUNT>
1

> <PUBCHEM_CONFORMER_ID>
00025A730000000D

> <PUBCHEM_MMFF94_ENERGY>
97.6931

> <PUBCHEM_FEATURE_SELFOVERLAP>
40.632

> <PUBCHEM_SHAPE_FINGERPRINT>
10 15 18335152973119636769
10595046 47 18336827618805341788
11405975 8 18335136509792494794
12107183 9 18264483980098721778
12236239 1 18334293188536971834
12390115 104 18129681728825285217
12403260 363 18411976997023497645
12596602 18 17822010926052754497
12633257 1 18336541634134088990
12788726 201 17775294819871817168
13073987 5 18334577974849039402
13167823 11 18335137622236626850
13583140 156 17969515959557793241
13785724 45 17833268619583822634
14466204 15 18269834229396730953
14739800 52 18199456848441034360
14790565 3 18410860932096299781
15196674 1 18410294713498251182
15238133 3 18201714029721621144
15250474 111 18337940307609995062
17818456 19 18339644447379096920
1813 80 16515401876532836102
18222031 100 12108084317933064273
20511986 3 18335688490626334032
20715895 44 18123470471586651977
20739085 24 17894633634871092462
21065198 48 18335136522693142602
21421861 104 17968085388431359648
23402539 116 18201711839182622973
23503953 91 18411127031506646970
23559900 14 17988090967617344478
25147074 1 18335973281381211366
268830 7 18187072971398228430
300161 21 18339637936393071724
3004659 81 18409732842378206134
335352 9 18339644430320586494
34797466 226 17488193762779422908
350125 39 18341334470414266233
3545911 37 18340491165926961324
38570 142 17388571399422076660
4073 2 17895762932192070314
4214541 1 18411138064702383461
474 4 17677615444158547876
5104073 3 18260828211178472608
573450 72 18411129255724855619
6058803 2 18262516030447226990
6327066 14 18337389332536955445
636775 72 18052539065640946792
7064713 232 18341047424136991809
7226269 152 17918272017564986505
7808743 9 18412828009985367433
9981440 41 18339928104885120195

> <PUBCHEM_SHAPE_MULTIPOLES>
443.98
13.57
3.03
0.93
4.15
0.44
0.34
6.93
2.61
-1.87
-0.08
0.97
-0.16
-2.62

> <PUBCHEM_SHAPE_SELFOVERLAP>
971.468

> <PUBCHEM_SHAPE_VOLUME>
241.5

> <PUBCHEM_COORDINATE_TYPE>
2
5
10

$$$$