25223105
  -OEChem-03242010093D

 86 91  0     1  0  0  0  0  0999 V2000
   12.4420   -1.2410   -0.3781 O   0  0  0  0  0  0  0  0  0  0  0  0
   13.3447    1.3020    0.2817 O   0  0  0  0  0  0  0  0  0  0  0  0
   -1.5450    0.3119   -1.3195 O   0  0  0  0  0  0  0  0  0  0  0  0
   -6.5055   -3.1318    0.5018 O   0  0  0  0  0  0  0  0  0  0  0  0
   -4.2091   -4.6629    0.3753 O   0  0  0  0  0  0  0  0  0  0  0  0
   -5.5836    1.7782   -0.4491 O   0  0  0  0  0  0  0  0  0  0  0  0
    6.9304    1.3417    0.2475 N   0  0  1  0  0  0  0  0  0  0  0  0
   -0.4194   -1.3736   -0.1276 N   0  0  0  0  0  0  0  0  0  0  0  0
   -6.3838   -0.3720    0.0638 N   0  0  0  0  0  0  0  0  0  0  0  0
   -9.2992    3.4465    0.4251 N   0  0  0  0  0  0  0  0  0  0  0  0
    7.3423    2.3086    1.2724 C   0  0  0  0  0  0  0  0  0  0  0  0
    7.7893    0.1456    0.3011 C   0  0  0  0  0  0  0  0  0  0  0  0
    8.7425    2.8419    0.9523 C   0  0  0  0  0  0  0  0  0  0  0  0
    9.2657    0.4677    0.2691 C   0  0  0  0  0  0  0  0  0  0  0  0
    9.7248    1.7477    0.6247 C   0  0  0  0  0  0  0  0  0  0  0  0
    5.5268    0.9689    0.4196 C   0  0  0  0  0  0  0  0  0  0  0  0
    5.0636    0.0442   -0.7066 C   0  0  0  0  0  0  0  0  0  0  0  0
   10.1923   -0.5327   -0.0551 C   0  0  0  0  0  0  0  0  0  0  0  0
   11.0992    2.0187    0.6148 C   0  0  0  0  0  0  0  0  0  0  0  0
   11.5592   -0.2558   -0.0526 C   0  0  0  0  0  0  0  0  0  0  0  0
   12.0120    1.0190    0.2798 C   0  0  0  0  0  0  0  0  0  0  0  0
    3.6111   -0.3304   -0.5531 C   0  0  0  0  0  0  0  0  0  0  0  0
    3.2576   -1.4656    0.1763 C   0  0  0  0  0  0  0  0  0  0  0  0
    2.6211    0.4573   -1.1406 C   0  0  0  0  0  0  0  0  0  0  0  0
    1.9141   -1.8132    0.3181 C   0  0  0  0  0  0  0  0  0  0  0  0
    1.2778    0.1098   -0.9989 C   0  0  0  0  0  0  0  0  0  0  0  0
    0.9243   -1.0255   -0.2696 C   0  0  0  0  0  0  0  0  0  0  0  0
   11.8967   -2.5175   -0.7057 C   0  0  0  0  0  0  0  0  0  0  0  0
   13.9072    1.7803   -0.9386 C   0  0  0  0  0  0  0  0  0  0  0  0
   -1.5413   -0.7101   -0.6416 C   0  0  0  0  0  0  0  0  0  0  0  0
   -2.8509   -1.3460   -0.3409 C   0  0  0  0  0  0  0  0  0  0  0  0
   -4.0067   -0.5678   -0.2788 C   0  0  0  0  0  0  0  0  0  0  0  0
   -5.2353   -1.1649    0.0037 C   0  0  0  0  0  0  0  0  0  0  0  0
   -2.9236   -2.7215   -0.1206 C   0  0  0  0  0  0  0  0  0  0  0  0
   -5.3079   -2.5404    0.2240 C   0  0  0  0  0  0  0  0  0  0  0  0
   -4.1521   -3.3187    0.1619 C   0  0  0  0  0  0  0  0  0  0  0  0
   -6.4910    1.0063   -0.1578 C   0  0  0  0  0  0  0  0  0  0  0  0
   -7.8647    1.5632   -0.0472 C   0  0  0  0  0  0  0  0  0  0  0  0
  -10.2668    1.3258   -0.1860 C   0  0  0  0  0  0  0  0  0  0  0  0
   -8.9815    0.7783   -0.2964 C   0  0  0  0  0  0  0  0  0  0  0  0
  -10.3811    2.6826    0.1825 C   0  0  0  0  0  0  0  0  0  0  0  0
   -8.0766    2.8800    0.3071 C   0  0  0  0  0  0  0  0  0  0  0  0
  -11.4175    0.5579   -0.4321 C   0  0  0  0  0  0  0  0  0  0  0  0
  -11.6581    3.2258    0.2925 C   0  0  0  0  0  0  0  0  0  0  0  0
   -6.8780   -3.2232    1.8746 C   0  0  0  0  0  0  0  0  0  0  0  0
  -12.6823    1.1269   -0.3149 C   0  0  0  0  0  0  0  0  0  0  0  0
   -2.9817   -5.3848    0.2934 C   0  0  0  0  0  0  0  0  0  0  0  0
  -12.8023    2.4627    0.0481 C   0  0  0  0  0  0  0  0  0  0  0  0
    7.3300    1.8486    2.2699 H   0  0  0  0  0  0  0  0  0  0  0  0
    6.6532    3.1616    1.3004 H   0  0  0  0  0  0  0  0  0  0  0  0
    7.5889   -0.4471    1.2034 H   0  0  0  0  0  0  0  0  0  0  0  0
    7.6054   -0.4800   -0.5780 H   0  0  0  0  0  0  0  0  0  0  0  0
    8.6875    3.5190    0.0903 H   0  0  0  0  0  0  0  0  0  0  0  0
    9.1040    3.4213    1.8102 H   0  0  0  0  0  0  0  0  0  0  0  0
    5.3616    0.4936    1.3963 H   0  0  0  0  0  0  0  0  0  0  0  0
    4.9064    1.8748    0.4027 H   0  0  0  0  0  0  0  0  0  0  0  0
    5.6278   -0.8940   -0.7369 H   0  0  0  0  0  0  0  0  0  0  0  0
    5.2172    0.5226   -1.6829 H   0  0  0  0  0  0  0  0  0  0  0  0
    9.7821   -1.5074   -0.2984 H   0  0  0  0  0  0  0  0  0  0  0  0
   11.4577    3.0132    0.8701 H   0  0  0  0  0  0  0  0  0  0  0  0
    4.0193   -2.0862    0.6409 H   0  0  0  0  0  0  0  0  0  0  0  0
    2.8856    1.3448   -1.7096 H   0  0  0  0  0  0  0  0  0  0  0  0
    1.6534   -2.7006    0.8895 H   0  0  0  0  0  0  0  0  0  0  0  0
    0.5715    0.7697   -1.4824 H   0  0  0  0  0  0  0  0  0  0  0  0
   12.7393   -3.1769   -0.9391 H   0  0  0  0  0  0  0  0  0  0  0  0
   11.2721   -2.4716   -1.6044 H   0  0  0  0  0  0  0  0  0  0  0  0
   11.3719   -2.9633    0.1461 H   0  0  0  0  0  0  0  0  0  0  0  0
   13.7868    1.0394   -1.7352 H   0  0  0  0  0  0  0  0  0  0  0  0
   13.4401    2.7261   -1.2311 H   0  0  0  0  0  0  0  0  0  0  0  0
   14.9752    1.9521   -0.7794 H   0  0  0  0  0  0  0  0  0  0  0  0
   -0.5702   -2.1881    0.4605 H   0  0  0  0  0  0  0  0  0  0  0  0
   -3.8833    0.4922   -0.4432 H   0  0  0  0  0  0  0  0  0  0  0  0
   -2.0208   -3.3089   -0.2261 H   0  0  0  0  0  0  0  0  0  0  0  0
   -7.2235   -0.8837    0.3189 H   0  0  0  0  0  0  0  0  0  0  0  0
   -8.8870   -0.2577   -0.6127 H   0  0  0  0  0  0  0  0  0  0  0  0
   -7.2524    3.5534    0.5216 H   0  0  0  0  0  0  0  0  0  0  0  0
  -11.3353   -0.4888   -0.7165 H   0  0  0  0  0  0  0  0  0  0  0  0
  -11.7791    4.2699    0.5752 H   0  0  0  0  0  0  0  0  0  0  0  0
  -13.5692    0.5306   -0.5058 H   0  0  0  0  0  0  0  0  0  0  0  0
   -7.8746   -3.6697    1.9295 H   0  0  0  0  0  0  0  0  0  0  0  0
   -6.9139   -2.2322    2.3380 H   0  0  0  0  0  0  0  0  0  0  0  0
   -6.1779   -3.8647    2.4191 H   0  0  0  0  0  0  0  0  0  0  0  0
   -3.2127   -6.4344    0.5037 H   0  0  0  0  0  0  0  0  0  0  0  0
   -2.2678   -5.0599    1.0582 H   0  0  0  0  0  0  0  0  0  0  0  0
   -2.5599   -5.3514   -0.7170 H   0  0  0  0  0  0  0  0  0  0  0  0
  -13.7853    2.9148    0.1421 H   0  0  0  0  0  0  0  0  0  0  0  0
  1 20  1  0  0  0  0
  1 28  1  0  0  0  0
  2 21  1  0  0  0  0
  2 29  1  0  0  0  0
  3 30  2  0  0  0  0
  4 35  1  0  0  0  0
  4 45  1  0  0  0  0
  5 36  1  0  0  0  0
  5 47  1  0  0  0  0
  6 37  2  0  0  0  0
  7 11  1  0  0  0  0
  7 12  1  0  0  0  0
  7 16  1  0  0  0  0
  8 27  1  0  0  0  0
  8 30  1  0  0  0  0
  8 71  1  0  0  0  0
  9 33  1  0  0  0  0
  9 37  1  0  0  0  0
  9 74  1  0  0  0  0
 10 41  1  0  0  0  0
 10 42  2  0  0  0  0
 11 13  1  0  0  0  0
 11 49  1  0  0  0  0
 11 50  1  0  0  0  0
 12 14  1  0  0  0  0
 12 51  1  0  0  0  0
 12 52  1  0  0  0  0
 13 15  1  0  0  0  0
 13 53  1  0  0  0  0
 13 54  1  0  0  0  0
 14 15  1  0  0  0  0
 14 18  2  0  0  0  0
 15 19  2  0  0  0  0
 16 17  1  0  0  0  0
 16 55  1  0  0  0  0
 16 56  1  0  0  0  0
 17 22  1  0  0  0  0
 17 57  1  0  0  0  0
 17 58  1  0  0  0  0
 18 20  1  0  0  0  0
 18 59  1  0  0  0  0
 19 21  1  0  0  0  0
 19 60  1  0  0  0  0
 20 21  2  0  0  0  0
 22 23  2  0  0  0  0
 22 24  1  0  0  0  0
 23 25  1  0  0  0  0
 23 61  1  0  0  0  0
 24 26  2  0  0  0  0
 24 62  1  0  0  0  0
 25 27  2  0  0  0  0
 25 63  1  0  0  0  0
 26 27  1  0  0  0  0
 26 64  1  0  0  0  0
 28 65  1  0  0  0  0
 28 66  1  0  0  0  0
 28 67  1  0  0  0  0
 29 68  1  0  0  0  0
 29 69  1  0  0  0  0
 29 70  1  0  0  0  0
 30 31  1  0  0  0  0
 31 32  2  0  0  0  0
 31 34  1  0  0  0  0
 32 33  1  0  0  0  0
 32 72  1  0  0  0  0
 33 35  2  0  0  0  0
 34 36  2  0  0  0  0
 34 73  1  0  0  0  0
 35 36  1  0  0  0  0
 37 38  1  0  0  0  0
 38 40  2  0  0  0  0
 38 42  1  0  0  0  0
 39 40  1  0  0  0  0
 39 41  1  0  0  0  0
 39 43  2  0  0  0  0
 40 75  1  0  0  0  0
 41 44  2  0  0  0  0
 42 76  1  0  0  0  0
 43 46  1  0  0  0  0
 43 77  1  0  0  0  0
 44 48  1  0  0  0  0
 44 78  1  0  0  0  0
 45 80  1  0  0  0  0
 45 81  1  0  0  0  0
 45 82  1  0  0  0  0
 46 48  2  0  0  0  0
 46 79  1  0  0  0  0
 47 83  1  0  0  0  0
 47 84  1  0  0  0  0
 47 85  1  0  0  0  0
 48 86  1  0  0  0  0
M  END
> <PUBCHEM_COMPOUND_CID>
25223105

> <PUBCHEM_CONFORMER_RMSD>
1.4

> <PUBCHEM_CONFORMER_DIVERSEORDER>
19
48
23
58
59
13
46
36
34
10
61
15
39
54
25
56
17
26
14
50
30
38
60
21
53
41
16
42
12
43
8
63
44
35
52
27
55
28
40
45
5
32
47
37
49
62
24
51
57
18
29
11
1
20
33
2
4
9
31
6
7
3
22

> <PUBCHEM_MMFF94_PARTIAL_CHARGES>
63
1 -0.36
10 -0.62
11 0.27
12 0.41
13 0.14
14 -0.14
15 -0.14
16 0.27
17 0.14
18 -0.15
19 -0.15
2 -0.36
20 0.08
21 0.08
22 -0.14
23 -0.15
24 -0.15
25 -0.15
26 -0.15
27 0.12
28 0.28
29 0.28
3 -0.57
30 0.54
31 0.09
32 -0.15
33 0.12
34 -0.15
35 0.08
36 0.08
37 0.54
38 0.09
4 -0.36
40 -0.15
41 0.31
42 0.16
43 -0.15
44 -0.15
45 0.28
46 -0.15
47 0.28
48 -0.15
5 -0.36
59 0.15
6 -0.57
60 0.15
61 0.15
62 0.15
63 0.15
64 0.15
7 -0.81
71 0.37
72 0.15
73 0.15
74 0.37
75 0.15
76 0.15
77 0.15
78 0.15
79 0.15
8 -0.55
86 0.15
9 -0.55

> <PUBCHEM_EFFECTIVE_ROTOR_COUNT>
13.8

> <PUBCHEM_PHARMACOPHORE_FEATURES>
16
1 1 acceptor
1 10 acceptor
1 2 acceptor
1 3 acceptor
1 4 acceptor
1 5 acceptor
1 6 acceptor
1 7 cation
1 8 donor
1 9 donor
6 10 38 39 40 41 42 rings
6 14 15 18 19 20 21 rings
6 22 23 24 25 26 27 rings
6 31 32 33 34 35 36 rings
6 39 41 43 44 46 48 rings
6 7 11 12 13 14 15 rings

> <PUBCHEM_HEAVY_ATOM_COUNT>
48

> <PUBCHEM_ATOM_DEF_STEREO_COUNT>
0

> <PUBCHEM_ATOM_UDEF_STEREO_COUNT>
0

> <PUBCHEM_BOND_DEF_STEREO_COUNT>
0

> <PUBCHEM_BOND_UDEF_STEREO_COUNT>
0

> <PUBCHEM_ISOTOPIC_ATOM_COUNT>
0

> <PUBCHEM_COMPONENT_COUNT>
1

> <PUBCHEM_CACTVS_TAUTO_COUNT>
4

> <PUBCHEM_CONFORMER_ID>
0180DFC100000013

> <PUBCHEM_MMFF94_ENERGY>
193.0205

> <PUBCHEM_FEATURE_SELFOVERLAP>
81.266

> <PUBCHEM_SHAPE_FINGERPRINT>
11061554 47 18410572843482292685
11410812 94 18059851801791977079
12013929 2 18272370871963264728
12559415 43 18336256869862354629
12559415 90 18273492373976784868
15061470 23 18411981382723475604
15152005 290 18411418402488862607
15274700 256 18409449224962284395
15343295 29 18411132502725075053
15890870 6 18343581824715208641
20737093 207 13984957260445805057
21792965 68 18272375261288200041
306946 40 17775001293132327696
3991529 128 17894631448975871060
54039377 194 8862939481725035665

> <PUBCHEM_SHAPE_MULTIPOLES>
932.68
65.92
4.7
0.94
79.94
4.57
-0.09
-55.03
-1.86
-11.05
-1.35
0.46
0.07
2.77

> <PUBCHEM_SHAPE_SELFOVERLAP>
2040.516

> <PUBCHEM_SHAPE_VOLUME>
503.8

> <PUBCHEM_COORDINATE_TYPE>
2
5
10

$$$$