148195
  -OEChem-03242010103D

 67 71  0     1  0  0  0  0  0999 V2000
   -0.6083    2.1401   -2.2020 Br  0  0  0  0  0  0  0  0  0  0  0  0
   -5.4443   -4.9018   -1.9427 Br  0  0  0  0  0  0  0  0  0  0  0  0
   -4.1416    5.7285   -0.1094 Cl  0  0  0  0  0  0  0  0  0  0  0  0
    2.9291   -2.6956    2.0639 O   0  0  0  0  0  0  0  0  0  0  0  0
    7.7930   -0.7463   -2.2857 O   0  0  0  0  0  0  0  0  0  0  0  0
    1.2544   -1.0868    2.1267 N   0  0  0  0  0  0  0  0  0  0  0  0
    6.1611    0.3974   -1.0921 N   0  0  0  0  0  0  0  0  0  0  0  0
   -2.4762   -2.0883   -1.3670 N   0  0  0  0  0  0  0  0  0  0  0  0
    8.2995    1.3168   -1.5094 N   0  0  0  0  0  0  0  0  0  0  0  0
   -1.2722   -0.3110    0.9313 C   0  0  0  0  0  0  0  0  0  0  0  0
   -2.1318    0.0198   -0.2864 C   0  0  2  0  0  0  0  0  0  0  0  0
   -0.7479   -1.7529    0.8552 C   0  0  0  0  0  0  0  0  0  0  0  0
   -0.0997    0.6738    1.0566 C   0  0  0  0  0  0  0  0  0  0  0  0
    0.1726   -2.0685    2.0319 C   0  0  0  0  0  0  0  0  0  0  0  0
    0.8098    0.3082    2.2285 C   0  0  0  0  0  0  0  0  0  0  0  0
    4.0903    0.0214    0.9118 C   0  0  0  0  0  0  0  0  0  0  0  0
   -2.6973    1.4270   -0.2343 C   0  0  0  0  0  0  0  0  0  0  0  0
   -3.0808   -1.1167   -0.6184 C   0  0  0  0  0  0  0  0  0  0  0  0
    3.6342   -0.4453    2.2919 C   0  0  0  0  0  0  0  0  0  0  0  0
    2.5810   -1.5153    2.1514 C   0  0  0  0  0  0  0  0  0  0  0  0
    4.6540   -1.1514    0.0967 C   0  0  0  0  0  0  0  0  0  0  0  0
    5.1401    1.1360    1.0306 C   0  0  0  0  0  0  0  0  0  0  0  0
   -3.7630    1.7931    0.6036 C   0  0  0  0  0  0  0  0  0  0  0  0
   -4.4130   -1.2338   -0.2063 C   0  0  0  0  0  0  0  0  0  0  0  0
    5.1800   -0.6787   -1.2562 C   0  0  0  0  0  0  0  0  0  0  0  0
    5.6633    1.5596   -0.3419 C   0  0  0  0  0  0  0  0  0  0  0  0
   -4.4741    0.7748    1.4492 C   0  0  0  0  0  0  0  0  0  0  0  0
   -5.2184   -0.2375    0.5901 C   0  0  0  0  0  0  0  0  0  0  0  0
   -2.0928    2.4234   -1.0269 C   0  0  0  0  0  0  0  0  0  0  0  0
   -4.1994    3.1299    0.6312 C   0  0  0  0  0  0  0  0  0  0  0  0
   -5.1135   -2.3829   -0.6277 C   0  0  0  0  0  0  0  0  0  0  0  0
   -2.5359    3.7455   -0.9933 C   0  0  0  0  0  0  0  0  0  0  0  0
   -3.5898    4.0995   -0.1618 C   0  0  0  0  0  0  0  0  0  0  0  0
    7.4309    0.2582   -1.6644 C   0  0  0  0  0  0  0  0  0  0  0  0
   -3.1881   -3.1735   -1.7326 C   0  0  0  0  0  0  0  0  0  0  0  0
   -4.5052   -3.3672   -1.3925 C   0  0  0  0  0  0  0  0  0  0  0  0
   -1.8574   -0.2387    1.8533 H   0  0  0  0  0  0  0  0  0  0  0  0
   -1.4474   -0.0280   -1.1376 H   0  0  0  0  0  0  0  0  0  0  0  0
   -0.1876   -1.9074   -0.0758 H   0  0  0  0  0  0  0  0  0  0  0  0
   -1.5592   -2.4859    0.9058 H   0  0  0  0  0  0  0  0  0  0  0  0
   -0.4501    1.6993    1.2107 H   0  0  0  0  0  0  0  0  0  0  0  0
    0.5049    0.6526    0.1428 H   0  0  0  0  0  0  0  0  0  0  0  0
    0.5737   -3.0815    1.9263 H   0  0  0  0  0  0  0  0  0  0  0  0
   -0.3837   -2.0339    2.9762 H   0  0  0  0  0  0  0  0  0  0  0  0
    0.2713    0.4089    3.1783 H   0  0  0  0  0  0  0  0  0  0  0  0
    1.6329    1.0207    2.2452 H   0  0  0  0  0  0  0  0  0  0  0  0
    3.2248    0.4250    0.3687 H   0  0  0  0  0  0  0  0  0  0  0  0
    3.3231    0.3752    2.9410 H   0  0  0  0  0  0  0  0  0  0  0  0
    4.4807   -0.9026    2.8234 H   0  0  0  0  0  0  0  0  0  0  0  0
    5.4668   -1.6370    0.6519 H   0  0  0  0  0  0  0  0  0  0  0  0
    3.8870   -1.9082   -0.0962 H   0  0  0  0  0  0  0  0  0  0  0  0
    4.7084    2.0052    1.5405 H   0  0  0  0  0  0  0  0  0  0  0  0
    5.9812    0.7863    1.6432 H   0  0  0  0  0  0  0  0  0  0  0  0
    4.3614   -0.2840   -1.8700 H   0  0  0  0  0  0  0  0  0  0  0  0
    5.6126   -1.5256   -1.7979 H   0  0  0  0  0  0  0  0  0  0  0  0
    6.4217    2.3299   -0.2074 H   0  0  0  0  0  0  0  0  0  0  0  0
    4.8555    2.0039   -0.9358 H   0  0  0  0  0  0  0  0  0  0  0  0
   -3.7919    0.2881    2.1491 H   0  0  0  0  0  0  0  0  0  0  0  0
   -5.2117    1.2838    2.0840 H   0  0  0  0  0  0  0  0  0  0  0  0
   -5.8812    0.2908   -0.1089 H   0  0  0  0  0  0  0  0  0  0  0  0
   -5.8686   -0.8025    1.2726 H   0  0  0  0  0  0  0  0  0  0  0  0
   -5.0296    3.4102    1.2771 H   0  0  0  0  0  0  0  0  0  0  0  0
   -6.1594   -2.4989   -0.3454 H   0  0  0  0  0  0  0  0  0  0  0  0
   -2.0613    4.5079   -1.6078 H   0  0  0  0  0  0  0  0  0  0  0  0
   -2.6366   -3.8951   -2.3268 H   0  0  0  0  0  0  0  0  0  0  0  0
    8.0797    2.1829   -1.0368 H   0  0  0  0  0  0  0  0  0  0  0  0
    9.2339    1.2640   -1.9027 H   0  0  0  0  0  0  0  0  0  0  0  0
  1 29  1  0  0  0  0
  2 36  1  0  0  0  0
  3 33  1  0  0  0  0
  4 20  2  0  0  0  0
  5 34  2  0  0  0  0
  6 14  1  0  0  0  0
  6 15  1  0  0  0  0
  6 20  1  0  0  0  0
  7 25  1  0  0  0  0
  7 26  1  0  0  0  0
  7 34  1  0  0  0  0
  8 18  1  0  0  0  0
  8 35  2  0  0  0  0
  9 34  1  0  0  0  0
  9 66  1  0  0  0  0
  9 67  1  0  0  0  0
 10 11  1  0  0  0  0
 10 12  1  0  0  0  0
 10 13  1  0  0  0  0
 10 37  1  0  0  0  0
 11 17  1  0  0  0  0
 11 18  1  0  0  0  0
 11 38  1  0  0  0  0
 12 14  1  0  0  0  0
 12 39  1  0  0  0  0
 12 40  1  0  0  0  0
 13 15  1  0  0  0  0
 13 41  1  0  0  0  0
 13 42  1  0  0  0  0
 14 43  1  0  0  0  0
 14 44  1  0  0  0  0
 15 45  1  0  0  0  0
 15 46  1  0  0  0  0
 16 19  1  0  0  0  0
 16 21  1  0  0  0  0
 16 22  1  0  0  0  0
 16 47  1  0  0  0  0
 17 23  2  0  0  0  0
 17 29  1  0  0  0  0
 18 24  2  0  0  0  0
 19 20  1  0  0  0  0
 19 48  1  0  0  0  0
 19 49  1  0  0  0  0
 21 25  1  0  0  0  0
 21 50  1  0  0  0  0
 21 51  1  0  0  0  0
 22 26  1  0  0  0  0
 22 52  1  0  0  0  0
 22 53  1  0  0  0  0
 23 27  1  0  0  0  0
 23 30  1  0  0  0  0
 24 28  1  0  0  0  0
 24 31  1  0  0  0  0
 25 54  1  0  0  0  0
 25 55  1  0  0  0  0
 26 56  1  0  0  0  0
 26 57  1  0  0  0  0
 27 28  1  0  0  0  0
 27 58  1  0  0  0  0
 27 59  1  0  0  0  0
 28 60  1  0  0  0  0
 28 61  1  0  0  0  0
 29 32  2  0  0  0  0
 30 33  2  0  0  0  0
 30 62  1  0  0  0  0
 31 36  2  0  0  0  0
 31 63  1  0  0  0  0
 32 33  1  0  0  0  0
 32 64  1  0  0  0  0
 35 36  1  0  0  0  0
 35 65  1  0  0  0  0
M  END
> <PUBCHEM_COMPOUND_CID>
148195

> <PUBCHEM_CONFORMER_RMSD>
1

> <PUBCHEM_CONFORMER_DIVERSEORDER>
1
14
33
6
5
22
12
19
29
11
27
2
23
13
28
30
31
32
18
4
3
9
10
17
35
16
7
8
20
26
34
15
25
24
21

> <PUBCHEM_MMFF94_PARTIAL_CHARGES>
36
1 -0.11
11 0.29
14 0.3
15 0.3
17 -0.14
18 0.17
19 0.06
2 -0.11
20 0.57
23 -0.14
24 -0.14
25 0.3
26 0.3
27 0.14
28 0.14
29 0.11
3 -0.18
30 -0.15
31 -0.15
32 -0.15
33 0.18
34 0.69
35 0.16
36 0.11
4 -0.57
5 -0.57
6 -0.66
62 0.15
63 0.15
64 0.15
65 0.15
66 0.37
67 0.37
7 -0.66
8 -0.62
9 -0.8

> <PUBCHEM_EFFECTIVE_ROTOR_COUNT>
8

> <PUBCHEM_PHARMACOPHORE_FEATURES>
11
1 1 hydrophobe
1 2 hydrophobe
1 4 acceptor
1 5 acceptor
1 8 acceptor
1 9 donor
6 17 23 29 30 32 33 rings
6 6 10 12 13 14 15 rings
6 7 16 21 22 25 26 rings
6 8 18 24 31 35 36 rings
7 11 17 18 23 24 27 28 rings

> <PUBCHEM_HEAVY_ATOM_COUNT>
36

> <PUBCHEM_ATOM_DEF_STEREO_COUNT>
1

> <PUBCHEM_ATOM_UDEF_STEREO_COUNT>
0

> <PUBCHEM_BOND_DEF_STEREO_COUNT>
0

> <PUBCHEM_BOND_UDEF_STEREO_COUNT>
0

> <PUBCHEM_ISOTOPIC_ATOM_COUNT>
0

> <PUBCHEM_COMPONENT_COUNT>
1

> <PUBCHEM_CACTVS_TAUTO_COUNT>
2

> <PUBCHEM_CONFORMER_ID>
000242E300000001

> <PUBCHEM_MMFF94_ENERGY>
104.5123

> <PUBCHEM_FEATURE_SELFOVERLAP>
55.838

> <PUBCHEM_SHAPE_FINGERPRINT>
10165383 225 17916880015318957873
10670039 82 17967534567465731188
10794284 68 18335717044048842657
11315621 246 18272086136531798831
11410812 94 18410582778326580668
11505856 67 18261951852270360901
11578080 2 18057052306756415407
117089 54 17767403852790743735
12342043 65 17345467270210153050
131258 43 17980200004629666959
13383668 90 18130235933745485030
13540713 5 17970050184986353378
13690498 29 18201438124737380719
13757389 114 18342174450179730629
13782708 43 16772946064101209351
13911987 19 17604417600496524003
14202776 33 18408324363250376877
14400156 266 18200304546753333423
14784336 7 17974849781165193949
14840074 17 18333447630226064699
15198563 99 18341882040105573669
15230672 131 18126571120152013774
15320295 44 18410858729432380422
15361156 5 18337403741603165436
15448158 71 17534611617552085536
15484559 13 14430465832563783484
15575132 122 18260261911377452045
15705408 1 17614816928033038175
15968369 153 18191035692619598504
16991971 28 18196083577074732287
21033650 10 18410579474647222298
21120745 212 18337946887852475905
21223535 225 18260555507237519796
21716022 299 17762617696291272525
21772528 278 16951149282629375762
21796203 349 17973462159459215147
22122407 14 13479136847927566622
22907989 373 18120621735837576399
23516275 100 17905875234733169088
24180151 214 17313372470540773291
24180151 248 17984691487838200537
24771750 20 17769656396017788607
249057 25 17895456069642775698
255183 451 17839733009468541303
2838139 119 18113903763100175488
3610482 184 18114474379148214068
4058900 60 17625538983223064345
4098825 35 18338806607214097950
4107672 100 18271815600730893228
4258327 124 17823411609625803845
44880168 125 16629958962044280119
44880568 143 18342185471266908740
46194498 28 17845080956531503104
6058803 2 17971449846103803651
6608658 132 18187640331987696222
6700243 42 18201723963748861694
6898599 12 18336820884561021933

> <PUBCHEM_SHAPE_MULTIPOLES>
722.95
17.52
5.8
2.44
37.92
3.34
0.29
-2.66
-10.04
-14.81
-2.72
2.59
-1.19
-3.46

> <PUBCHEM_SHAPE_SELFOVERLAP>
1513.997

> <PUBCHEM_SHAPE_VOLUME>
413.8

> <PUBCHEM_COORDINATE_TYPE>
2
5
10

$$$$