118708513
  -OEChem-03242010103D

 46 48  0     0  0  0  0  0  0999 V2000
    6.4041   -0.6061    0.2023 O   0  0  0  0  0  0  0  0  0  0  0  0
    4.5209   -2.5727   -0.3059 O   0  0  0  0  0  0  0  0  0  0  0  0
    5.5973    2.0307    0.4611 O   0  0  0  0  0  0  0  0  0  0  0  0
    0.6766    1.8898   -0.6508 O   0  0  0  0  0  0  0  0  0  0  0  0
    0.0698   -0.2684    0.0421 N   0  0  0  0  0  0  0  0  0  0  0  0
   -2.0350   -1.3196    0.3977 N   0  0  0  0  0  0  0  0  0  0  0  0
   -7.6089   -1.2130   -0.2364 N   0  0  0  0  0  0  0  0  0  0  0  0
    2.3895    0.3934   -0.1625 C   0  0  0  0  0  0  0  0  0  0  0  0
    5.0862   -0.2780    0.0815 C   0  0  0  0  0  0  0  0  0  0  0  0
    4.1406   -1.2713   -0.1726 C   0  0  0  0  0  0  0  0  0  0  0  0
    4.6837    1.0509    0.2137 C   0  0  0  0  0  0  0  0  0  0  0  0
    2.7922   -0.9356   -0.2946 C   0  0  0  0  0  0  0  0  0  0  0  0
    3.3352    1.3866    0.0917 C   0  0  0  0  0  0  0  0  0  0  0  0
    0.9833    0.7423   -0.2888 C   0  0  0  0  0  0  0  0  0  0  0  0
   -4.0705   -0.0704    0.0223 C   0  0  0  0  0  0  0  0  0  0  0  0
   -1.3456   -0.2134    0.0387 C   0  0  0  0  0  0  0  0  0  0  0  0
   -5.5140   -0.0353    0.0265 C   0  0  0  0  0  0  0  0  0  0  0  0
   -3.3267    1.0469   -0.3407 C   0  0  0  0  0  0  0  0  0  0  0  0
   -1.9377    0.9823   -0.3350 C   0  0  0  0  0  0  0  0  0  0  0  0
   -3.3831   -1.2190    0.3800 C   0  0  0  0  0  0  0  0  0  0  0  0
   -6.2016    1.1456    0.2836 C   0  0  0  0  0  0  0  0  0  0  0  0
   -6.2575   -1.1770   -0.2253 C   0  0  0  0  0  0  0  0  0  0  0  0
   -7.5920    1.1486    0.2809 C   0  0  0  0  0  0  0  0  0  0  0  0
    7.1865   -0.5896   -0.9896 C   0  0  0  0  0  0  0  0  0  0  0  0
    4.5476   -3.3644    0.8802 C   0  0  0  0  0  0  0  0  0  0  0  0
    5.1019    3.3628    0.5823 C   0  0  0  0  0  0  0  0  0  0  0  0
   -8.2426   -0.0460    0.0176 C   0  0  0  0  0  0  0  0  0  0  0  0
    2.0936   -1.7331   -0.5318 H   0  0  0  0  0  0  0  0  0  0  0  0
    2.9716    2.4033    0.1938 H   0  0  0  0  0  0  0  0  0  0  0  0
    0.4186   -1.1633    0.3722 H   0  0  0  0  0  0  0  0  0  0  0  0
   -3.7916    1.9767   -0.6572 H   0  0  0  0  0  0  0  0  0  0  0  0
   -1.4305    1.8846   -0.6335 H   0  0  0  0  0  0  0  0  0  0  0  0
   -3.8819   -2.1283    0.7002 H   0  0  0  0  0  0  0  0  0  0  0  0
   -5.6932    2.0776    0.5142 H   0  0  0  0  0  0  0  0  0  0  0  0
   -5.8042   -2.1353   -0.4594 H   0  0  0  0  0  0  0  0  0  0  0  0
   -8.1494    2.0558    0.4843 H   0  0  0  0  0  0  0  0  0  0  0  0
    8.2108   -0.8713   -0.7305 H   0  0  0  0  0  0  0  0  0  0  0  0
    7.2000    0.4132   -1.4281 H   0  0  0  0  0  0  0  0  0  0  0  0
    6.7985   -1.3114   -1.7152 H   0  0  0  0  0  0  0  0  0  0  0  0
    5.2532   -2.9480    1.6059 H   0  0  0  0  0  0  0  0  0  0  0  0
    3.5478   -3.4276    1.3214 H   0  0  0  0  0  0  0  0  0  0  0  0
    4.8760   -4.3723    0.6120 H   0  0  0  0  0  0  0  0  0  0  0  0
    4.4289    3.4673    1.4402 H   0  0  0  0  0  0  0  0  0  0  0  0
    4.6480    3.7120   -0.3514 H   0  0  0  0  0  0  0  0  0  0  0  0
    5.9640    4.0097    0.7761 H   0  0  0  0  0  0  0  0  0  0  0  0
   -9.3264   -0.0972    0.0053 H   0  0  0  0  0  0  0  0  0  0  0  0
  1  9  1  0  0  0  0
  1 24  1  0  0  0  0
  2 10  1  0  0  0  0
  2 25  1  0  0  0  0
  3 11  1  0  0  0  0
  3 26  1  0  0  0  0
  4 14  2  0  0  0  0
  5 14  1  0  0  0  0
  5 16  1  0  0  0  0
  5 30  1  0  0  0  0
  6 16  2  0  0  0  0
  6 20  1  0  0  0  0
  7 22  1  0  0  0  0
  7 27  2  0  0  0  0
  8 12  2  0  0  0  0
  8 13  1  0  0  0  0
  8 14  1  0  0  0  0
  9 10  2  0  0  0  0
  9 11  1  0  0  0  0
 10 12  1  0  0  0  0
 11 13  2  0  0  0  0
 12 28  1  0  0  0  0
 13 29  1  0  0  0  0
 15 17  1  0  0  0  0
 15 18  1  0  0  0  0
 15 20  2  0  0  0  0
 16 19  1  0  0  0  0
 17 21  1  0  0  0  0
 17 22  2  0  0  0  0
 18 19  2  0  0  0  0
 18 31  1  0  0  0  0
 19 32  1  0  0  0  0
 20 33  1  0  0  0  0
 21 23  2  0  0  0  0
 21 34  1  0  0  0  0
 22 35  1  0  0  0  0
 23 27  1  0  0  0  0
 23 36  1  0  0  0  0
 24 37  1  0  0  0  0
 24 38  1  0  0  0  0
 24 39  1  0  0  0  0
 25 40  1  0  0  0  0
 25 41  1  0  0  0  0
 25 42  1  0  0  0  0
 26 43  1  0  0  0  0
 26 44  1  0  0  0  0
 26 45  1  0  0  0  0
 27 46  1  0  0  0  0
M  END
> <PUBCHEM_COMPOUND_CID>
118708513

> <PUBCHEM_CONFORMER_RMSD>
0.8

> <PUBCHEM_CONFORMER_DIVERSEORDER>
2
5
8
9
3
1
4
6
7

> <PUBCHEM_MMFF94_PARTIAL_CHARGES>
35
1 -0.36
10 0.08
11 0.08
12 -0.15
13 -0.15
14 0.54
16 0.43
18 -0.15
19 -0.15
2 -0.36
20 0.16
21 -0.15
22 0.16
23 -0.15
24 0.28
25 0.28
26 0.28
27 0.16
28 0.15
29 0.15
3 -0.36
30 0.37
31 0.15
32 0.15
33 0.15
34 0.15
35 0.15
36 0.15
4 -0.57
46 0.15
5 -0.55
6 -0.62
7 -0.62
8 0.09
9 0.08

> <PUBCHEM_EFFECTIVE_ROTOR_COUNT>
7

> <PUBCHEM_PHARMACOPHORE_FEATURES>
9
1 1 acceptor
1 2 acceptor
1 3 acceptor
1 4 acceptor
1 5 donor
1 7 acceptor
6 6 15 16 18 19 20 rings
6 7 17 21 22 23 27 rings
6 8 9 10 11 12 13 rings

> <PUBCHEM_HEAVY_ATOM_COUNT>
27

> <PUBCHEM_ATOM_DEF_STEREO_COUNT>
0

> <PUBCHEM_ATOM_UDEF_STEREO_COUNT>
0

> <PUBCHEM_BOND_DEF_STEREO_COUNT>
0

> <PUBCHEM_BOND_UDEF_STEREO_COUNT>
0

> <PUBCHEM_ISOTOPIC_ATOM_COUNT>
0

> <PUBCHEM_COMPONENT_COUNT>
1

> <PUBCHEM_CACTVS_TAUTO_COUNT>
6

> <PUBCHEM_CONFORMER_ID>
0713592100000002

> <PUBCHEM_MMFF94_ENERGY>
122.1886

> <PUBCHEM_FEATURE_SELFOVERLAP>
45.683

> <PUBCHEM_SHAPE_FINGERPRINT>
10299344 5 18342177756740065351
10411042 1 18051412873860476510
10595046 47 18343020008321975497
10835480 77 18338514256699861361
11315181 36 18202566199221488569
11524674 6 16702300166274434399
11719270 70 17560802104600035503
12107183 9 17837215870347485056
12166972 35 18410577292772907881
12236239 1 18343865515936994977
12516196 113 18341892991517920473
13073987 5 18412544288946515353
13533116 47 18409729534725991074
13617811 41 16805326578322353791
13685833 64 18334859393985997687
14170010 4 18261111902158263149
14251764 18 18410575072042161551
14251764 46 17275386499594781478
14347424 109 18411976940682553200
14856354 85 14418138427091207531
14933364 13 18412545418628344137
15183329 4 18342179938562255587
15361156 5 17822583814228305855
15419008 91 17823118151732626725
15461852 350 17203320123367222077
16120349 18 18341326777479239317
17844677 252 18412832365156337864
19427546 62 18264771146350015992
20157964 124 18413389856316576136
20281389 69 18335419076076273465
21130935 74 18411139134877708315
21267235 1 18410297999227529372
21315763 28 18343021094874776801
21344244 78 18058998490173005010
23081809 10 17846212263875809445
23522609 53 18120124756398127773
23536379 177 18343021082453825843
23559900 14 18408321115890987360
23569943 247 17824821136119356515
239999 70 18272938220190239166
255183 451 17985276179897366694
3004659 81 18261111876535944384
335352 9 18334297578515781639
3383291 50 17604437413908297827
34797466 226 17703516575002092012
3545911 37 18335421270408507188
3663271 9 18272936020792359321
4073 2 18188775075153548011
5104073 3 18269829818591814752

> <PUBCHEM_SHAPE_MULTIPOLES>
517.23
23.69
2.58
0.74
24.21
0.11
-0.01
1.14
0.17
-5.19
0.59
-0.44
0.05
0.2

> <PUBCHEM_SHAPE_SELFOVERLAP>
1122.823

> <PUBCHEM_SHAPE_VOLUME>
283

> <PUBCHEM_COORDINATE_TYPE>
2
5
10

$$$$