70682633
  -OEChem-03242010103D

 83 90  0     1  0  0  0  0  0999 V2000
   -1.2317    1.0164    1.0661 O   0  0  0  0  0  0  0  0  0  0  0  0
   -4.0417    1.7444    0.5271 O   0  0  0  0  0  0  0  0  0  0  0  0
   -4.6483    3.5110   -0.9833 O   0  0  0  0  0  0  0  0  0  0  0  0
   -3.1173    0.0440    2.9145 O   0  0  0  0  0  0  0  0  0  0  0  0
    3.6537   -1.6099    1.5847 O   0  0  0  0  0  0  0  0  0  0  0  0
    4.8646   -1.0814   -0.8891 O   0  0  0  0  0  0  0  0  0  0  0  0
    1.7740    2.9749   -1.3194 N   0  0  2  0  0  0  0  0  0  0  0  0
   -2.2001   -4.4244   -1.6073 N   0  0  1  0  0  0  0  0  0  0  0  0
    0.8547    2.3838   -0.3168 C   0  0  2  0  0  0  0  0  0  0  0  0
   -0.6208    2.7273   -0.5060 C   0  0  0  0  0  0  0  0  0  0  0  0
   -1.2194   -3.3868   -1.2000 C   0  0  1  0  0  0  0  0  0  0  0  0
   -1.0024    3.7823   -1.3750 C   0  0  0  0  0  0  0  0  0  0  0  0
    1.4452    4.3736   -1.6065 C   0  0  0  0  0  0  0  0  0  0  0  0
    0.0295    4.5640   -2.1464 C   0  0  0  0  0  0  0  0  0  0  0  0
   -1.7785   -2.4153   -0.1686 C   0  0  0  0  0  0  0  0  0  0  0  0
    1.3640    2.7283    1.1147 C   0  0  0  0  0  0  0  0  0  0  0  0
   -2.7899   -5.1008   -0.4458 C   0  0  0  0  0  0  0  0  0  0  0  0
   -2.7917   -2.8307    0.7178 C   0  0  0  0  0  0  0  0  0  0  0  0
   -3.4809   -4.1603    0.5443 C   0  0  0  0  0  0  0  0  0  0  0  0
   -1.6213    1.9739    0.1552 C   0  0  0  0  0  0  0  0  0  0  0  0
    0.0586   -4.1019   -0.6709 C   0  0  0  0  0  0  0  0  0  0  0  0
   -2.3590    4.0775   -1.5816 C   0  0  0  0  0  0  0  0  0  0  0  0
   -2.9488    2.3106   -0.0552 C   0  0  0  0  0  0  0  0  0  0  0  0
   -1.2772   -1.1069   -0.0741 C   0  0  0  0  0  0  0  0  0  0  0  0
    1.8640    2.1641   -2.5340 C   0  0  0  0  0  0  0  0  0  0  0  0
   -1.7593   -0.2437    0.9128 C   0  0  0  0  0  0  0  0  0  0  0  0
   -3.3008    3.3311   -0.9069 C   0  0  0  0  0  0  0  0  0  0  0  0
    2.5944    1.9284    1.4826 C   0  0  0  0  0  0  0  0  0  0  0  0
   -3.2366   -1.9625    1.7248 C   0  0  0  0  0  0  0  0  0  0  0  0
   -3.2163   -3.9043   -2.5217 C   0  0  0  0  0  0  0  0  0  0  0  0
    1.3238   -3.2766   -0.7151 C   0  0  0  0  0  0  0  0  0  0  0  0
   -2.7018   -0.6829    1.8406 C   0  0  0  0  0  0  0  0  0  0  0  0
    2.5298    0.5294    1.4900 C   0  0  0  0  0  0  0  0  0  0  0  0
   -5.1118    2.4962   -0.0744 C   0  0  0  0  0  0  0  0  0  0  0  0
    3.8098    2.5492    1.7883 C   0  0  0  0  0  0  0  0  0  0  0  0
    1.9321   -2.8321    0.4671 C   0  0  0  0  0  0  0  0  0  0  0  0
    1.9214   -2.9705   -1.9472 C   0  0  0  0  0  0  0  0  0  0  0  0
    3.6799   -0.2347    1.6990 C   0  0  0  0  0  0  0  0  0  0  0  0
    3.1021   -2.0706    0.4045 C   0  0  0  0  0  0  0  0  0  0  0  0
    4.9432    1.7799    2.0723 C   0  0  0  0  0  0  0  0  0  0  0  0
    3.1061   -2.2348   -2.0006 C   0  0  0  0  0  0  0  0  0  0  0  0
    4.8830    0.3860    2.0236 C   0  0  0  0  0  0  0  0  0  0  0  0
    3.7032   -1.7872   -0.8251 C   0  0  0  0  0  0  0  0  0  0  0  0
   -2.3862   -0.1183    4.1282 C   0  0  0  0  0  0  0  0  0  0  0  0
    5.4049   -0.8397   -2.1870 C   0  0  0  0  0  0  0  0  0  0  0  0
    0.9096    1.2957   -0.4470 H   0  0  0  0  0  0  0  0  0  0  0  0
   -0.9487   -2.8186   -2.1002 H   0  0  0  0  0  0  0  0  0  0  0  0
    2.1695    4.7966   -2.3139 H   0  0  0  0  0  0  0  0  0  0  0  0
    1.5642    4.9676   -0.6918 H   0  0  0  0  0  0  0  0  0  0  0  0
   -0.0149    4.2512   -3.1969 H   0  0  0  0  0  0  0  0  0  0  0  0
   -0.2169    5.6322   -2.1116 H   0  0  0  0  0  0  0  0  0  0  0  0
    1.5608    3.8027    1.2146 H   0  0  0  0  0  0  0  0  0  0  0  0
    0.6040    2.5137    1.8756 H   0  0  0  0  0  0  0  0  0  0  0  0
   -3.4970   -5.8740   -0.7726 H   0  0  0  0  0  0  0  0  0  0  0  0
   -2.0042   -5.6564    0.0811 H   0  0  0  0  0  0  0  0  0  0  0  0
   -3.5595   -4.6640    1.5153 H   0  0  0  0  0  0  0  0  0  0  0  0
   -4.5016   -3.9618    0.1925 H   0  0  0  0  0  0  0  0  0  0  0  0
    0.2567   -4.9990   -1.2755 H   0  0  0  0  0  0  0  0  0  0  0  0
   -0.0957   -4.4657    0.3538 H   0  0  0  0  0  0  0  0  0  0  0  0
   -2.6618    4.8738   -2.2541 H   0  0  0  0  0  0  0  0  0  0  0  0
   -0.5036   -0.7692   -0.7586 H   0  0  0  0  0  0  0  0  0  0  0  0
    2.2659    1.1722   -2.2979 H   0  0  0  0  0  0  0  0  0  0  0  0
    2.5611    2.6156   -3.2486 H   0  0  0  0  0  0  0  0  0  0  0  0
    0.8988    2.0276   -3.0326 H   0  0  0  0  0  0  0  0  0  0  0  0
   -4.0040   -2.2945    2.4211 H   0  0  0  0  0  0  0  0  0  0  0  0
   -3.8848   -4.7091   -2.8475 H   0  0  0  0  0  0  0  0  0  0  0  0
   -3.8284   -3.1096   -2.0829 H   0  0  0  0  0  0  0  0  0  0  0  0
   -2.7455   -3.5085   -3.4286 H   0  0  0  0  0  0  0  0  0  0  0  0
    1.5822    0.0361    1.2903 H   0  0  0  0  0  0  0  0  0  0  0  0
   -5.6946    2.9752    0.7206 H   0  0  0  0  0  0  0  0  0  0  0  0
   -5.7638    1.8048   -0.6205 H   0  0  0  0  0  0  0  0  0  0  0  0
    3.8879    3.6332    1.8001 H   0  0  0  0  0  0  0  0  0  0  0  0
    1.4849   -3.0563    1.4323 H   0  0  0  0  0  0  0  0  0  0  0  0
    1.4695   -3.3154   -2.8743 H   0  0  0  0  0  0  0  0  0  0  0  0
    5.8824    2.2716    2.3103 H   0  0  0  0  0  0  0  0  0  0  0  0
    3.5045   -2.0507   -2.9924 H   0  0  0  0  0  0  0  0  0  0  0  0
    5.7770   -0.2010    2.2123 H   0  0  0  0  0  0  0  0  0  0  0  0
   -2.8142    0.5527    4.8779 H   0  0  0  0  0  0  0  0  0  0  0  0
   -1.3341    0.1466    3.9816 H   0  0  0  0  0  0  0  0  0  0  0  0
   -2.4679   -1.1473    4.4921 H   0  0  0  0  0  0  0  0  0  0  0  0
    6.3279   -0.2667   -2.0495 H   0  0  0  0  0  0  0  0  0  0  0  0
    4.7348   -0.2212   -2.7938 H   0  0  0  0  0  0  0  0  0  0  0  0
    5.6816   -1.7727   -2.6896 H   0  0  0  0  0  0  0  0  0  0  0  0
  1 20  1  0  0  0  0
  1 26  1  0  0  0  0
  2 23  1  0  0  0  0
  2 34  1  0  0  0  0
  3 27  1  0  0  0  0
  3 34  1  0  0  0  0
  4 32  1  0  0  0  0
  4 44  1  0  0  0  0
  5 38  1  0  0  0  0
  5 39  1  0  0  0  0
  6 43  1  0  0  0  0
  6 45  1  0  0  0  0
  7  9  1  0  0  0  0
  7 13  1  0  0  0  0
  7 25  1  0  0  0  0
  8 11  1  0  0  0  0
  8 17  1  0  0  0  0
  8 30  1  0  0  0  0
  9 10  1  0  0  0  0
  9 16  1  0  0  0  0
  9 46  1  0  0  0  0
 10 12  1  0  0  0  0
 10 20  2  0  0  0  0
 11 15  1  0  0  0  0
 11 21  1  0  0  0  0
 11 47  1  0  0  0  0
 12 14  1  0  0  0  0
 12 22  2  0  0  0  0
 13 14  1  0  0  0  0
 13 48  1  0  0  0  0
 13 49  1  0  0  0  0
 14 50  1  0  0  0  0
 14 51  1  0  0  0  0
 15 18  1  0  0  0  0
 15 24  2  0  0  0  0
 16 28  1  0  0  0  0
 16 52  1  0  0  0  0
 16 53  1  0  0  0  0
 17 19  1  0  0  0  0
 17 54  1  0  0  0  0
 17 55  1  0  0  0  0
 18 19  1  0  0  0  0
 18 29  2  0  0  0  0
 19 56  1  0  0  0  0
 19 57  1  0  0  0  0
 20 23  1  0  0  0  0
 21 31  1  0  0  0  0
 21 58  1  0  0  0  0
 21 59  1  0  0  0  0
 22 27  1  0  0  0  0
 22 60  1  0  0  0  0
 23 27  2  0  0  0  0
 24 26  1  0  0  0  0
 24 61  1  0  0  0  0
 25 62  1  0  0  0  0
 25 63  1  0  0  0  0
 25 64  1  0  0  0  0
 26 32  2  0  0  0  0
 28 33  2  0  0  0  0
 28 35  1  0  0  0  0
 29 32  1  0  0  0  0
 29 65  1  0  0  0  0
 30 66  1  0  0  0  0
 30 67  1  0  0  0  0
 30 68  1  0  0  0  0
 31 36  2  0  0  0  0
 31 37  1  0  0  0  0
 33 38  1  0  0  0  0
 33 69  1  0  0  0  0
 34 70  1  0  0  0  0
 34 71  1  0  0  0  0
 35 40  2  0  0  0  0
 35 72  1  0  0  0  0
 36 39  1  0  0  0  0
 36 73  1  0  0  0  0
 37 41  2  0  0  0  0
 37 74  1  0  0  0  0
 38 42  2  0  0  0  0
 39 43  2  0  0  0  0
 40 42  1  0  0  0  0
 40 75  1  0  0  0  0
 41 43  1  0  0  0  0
 41 76  1  0  0  0  0
 42 77  1  0  0  0  0
 44 78  1  0  0  0  0
 44 79  1  0  0  0  0
 44 80  1  0  0  0  0
 45 81  1  0  0  0  0
 45 82  1  0  0  0  0
 45 83  1  0  0  0  0
M  END
> <PUBCHEM_COMPOUND_CID>
70682633

> <PUBCHEM_CONFORMER_RMSD>
1

> <PUBCHEM_CONFORMER_DIVERSEORDER>
1
5
13
10
12
4
8
3
6
9
11
2
7

> <PUBCHEM_MMFF94_PARTIAL_CHARGES>
55
1 -0.17
10 -0.14
11 0.41
12 -0.14
13 0.27
14 0.14
15 -0.14
16 0.14
17 0.27
18 -0.14
19 0.14
2 -0.36
20 0.08
21 0.14
22 -0.15
23 0.08
24 -0.15
25 0.27
26 0.08
27 0.08
28 -0.14
29 -0.15
3 -0.36
30 0.27
31 -0.14
32 0.08
33 -0.15
34 0.56
35 -0.15
36 -0.15
37 -0.15
38 0.08
39 0.08
4 -0.36
40 -0.15
41 -0.15
42 -0.15
43 0.08
44 0.28
45 0.28
5 -0.17
6 -0.36
60 0.15
61 0.15
65 0.15
69 0.15
7 -0.81
72 0.15
73 0.15
74 0.15
75 0.15
76 0.15
77 0.15
8 -0.81
9 0.41

> <PUBCHEM_EFFECTIVE_ROTOR_COUNT>
4.6

> <PUBCHEM_PHARMACOPHORE_FEATURES>
15
1 1 acceptor
1 2 acceptor
1 3 acceptor
1 4 acceptor
1 5 acceptor
1 6 acceptor
1 7 cation
1 8 cation
5 2 3 23 27 34 rings
6 10 12 20 22 23 27 rings
6 15 18 24 26 29 32 rings
6 28 33 35 38 40 42 rings
6 31 36 37 39 41 43 rings
6 7 9 10 12 13 14 rings
6 8 11 15 17 18 19 rings

> <PUBCHEM_HEAVY_ATOM_COUNT>
45

> <PUBCHEM_ATOM_DEF_STEREO_COUNT>
2

> <PUBCHEM_ATOM_UDEF_STEREO_COUNT>
0

> <PUBCHEM_BOND_DEF_STEREO_COUNT>
0

> <PUBCHEM_BOND_UDEF_STEREO_COUNT>
0

> <PUBCHEM_ISOTOPIC_ATOM_COUNT>
0

> <PUBCHEM_COMPONENT_COUNT>
1

> <PUBCHEM_CACTVS_TAUTO_COUNT>
1

> <PUBCHEM_CONFORMER_ID>
0436880900000001

> <PUBCHEM_MMFF94_ENERGY>
179.1407

> <PUBCHEM_FEATURE_SELFOVERLAP>
76.332

> <PUBCHEM_SHAPE_FINGERPRINT>
10653451 467 18121220883902047089
11093857 51 17757849826846489182
11513181 2 18192999446457335772
12156800 1 18339930441320864668
13402501 40 18051121502481907544
1361 2 18126550242231045709
14725015 67 17614551549781264987
14918310 93 17541717945890607905
15324884 4 18193574284679428267
15484559 13 17696176020763877583
15968369 26 17182191657928348220
15975801 100 18335148643819131884
17974551 9 17172926124801652106
19319366 153 16879358796533437960
20764821 26 18335427901658632364
474144 1 17256237671331462242
508706 21 18341323449042939878
57527358 35 14833849311248733163
6287921 2 17844544390367540794
66674814 147 17978187730831184925
86090 222 18053650391899957213

> <PUBCHEM_SHAPE_MULTIPOLES>
880.9
9.1
8.04
2.95
4.13
1.35
1.27
-2.33
2.26
-5.96
-5.84
0.65
0.26
0.56

> <PUBCHEM_SHAPE_SELFOVERLAP>
1964.611

> <PUBCHEM_SHAPE_VOLUME>
466.7

> <PUBCHEM_COORDINATE_TYPE>
2
5
10

$$$$