5
 OpenBabel03292021413D

105110  0  0  0  0  0  0  0  0999 V2000
    1.1100    2.2473    5.6237 C   0  0  0  0  0  0  0  0  0  0  0  0
    2.5287    2.1713    5.6406 O   0  0  0  0  0  0  0  0  0  0  0  0
    2.9798    0.8330    5.4437 C   0  0  0  0  0  0  0  0  0  0  0  0
    4.5019    0.8076    5.4706 C   0  0  0  0  0  0  0  0  0  0  0  0
    4.9484   -0.5318    5.2740 O   0  0  0  0  0  0  0  0  0  0  0  0
    6.3715   -0.6101    5.2920 C   0  0  0  0  0  0  0  0  0  0  0  0
    6.7827   -2.0582    5.0774 C   0  0  0  0  0  0  0  0  0  0  0  0
    8.2026   -2.1508    5.0898 O   0  0  0  0  0  0  0  0  0  0  0  0
    8.6275   -3.4960    4.8880 C   0  0  0  0  0  0  0  0  0  0  0  0
   10.1427   -3.5267    4.9007 C   0  0  0  0  0  0  0  0  0  0  0  0
   10.5795   -4.8627    4.6633 O   0  0  0  0  0  0  0  0  0  0  0  0
   11.9278   -5.0911    4.7491 C   0  0  0  0  0  0  0  0  0  0  0  0
   12.8472   -4.0413    4.9145 C   0  0  0  0  0  0  0  0  0  0  0  0
   14.2065   -4.2944    5.0598 C   0  0  0  0  0  0  0  0  0  0  0  0
   14.6676   -5.6111    4.9960 C   0  0  0  0  0  0  0  0  0  0  0  0
   13.7761   -6.6588    4.7854 C   0  0  0  0  0  0  0  0  0  0  0  0
   12.4014   -6.4146    4.6701 C   0  0  0  0  0  0  0  0  0  0  0  0
   11.6952   -7.5768    4.5030 O   0  0  0  0  0  0  0  0  0  0  0  0
   10.2843   -7.5137    4.3903 C   0  0  0  0  0  0  0  0  0  0  0  0
   16.1302   -5.8227    5.2378 C   0  0  0  0  0  0  0  0  0  0  0  0
   16.5214   -4.9237    6.4144 C   0  0  0  0  0  0  0  0  0  0  0  0
   16.2669   -3.4815    6.2284 N   0  0  0  0  0  0  0  0  0  0  0  0
   17.4767   -2.7146    5.9036 C   0  0  0  0  0  0  0  0  0  0  0  0
   18.5358   -2.7399    7.0200 C   0  0  0  0  0  0  0  0  0  0  0  0
   19.7712   -1.9780    6.6232 C   0  0  0  0  0  0  0  0  0  0  0  0
   19.6924   -0.6044    6.3974 C   0  0  0  0  0  0  0  0  0  0  0  0
   20.8211    0.1104    6.0166 C   0  0  0  0  0  0  0  0  0  0  0  0
   22.0538   -0.5224    5.8709 C   0  0  0  0  0  0  0  0  0  0  0  0
   23.2271    0.1853    5.5255 N   0  0  0  0  0  0  0  0  0  0  0  0
   23.3775    1.5664    5.6040 C   0  0  0  0  0  0  0  0  0  0  0  0
   22.5163    2.3691    5.9360 O   0  0  0  0  0  0  0  0  0  0  0  0
   24.7176    2.1254    5.2708 C   0  0  0  0  0  0  0  0  0  0  0  0
   25.8544    1.3301    5.3124 C   0  0  0  0  0  0  0  0  0  0  0  0
   27.0709    1.8871    4.9755 C   0  0  0  0  0  0  0  0  0  0  0  0
   27.1990    3.2379    4.6069 C   0  0  0  0  0  0  0  0  0  0  0  0
   28.6286    3.5953    4.3206 C   0  0  0  0  0  0  0  0  0  0  0  0
   29.5328    2.8005    4.4643 O   0  0  0  0  0  0  0  0  0  0  0  0
   28.7760    4.8621    3.8718 O   0  0  0  0  0  0  0  0  0  0  0  0
   30.1542    5.1186    3.5474 C   0  0  0  0  0  0  0  0  0  0  0  0
   26.0747    4.1000    4.6297 C   0  0  0  0  0  0  0  0  0  0  0  0
   26.1382    5.5056    4.3191 N   0  0  0  0  0  0  0  0  0  0  0  0
   25.5214    6.4768    5.1234 C   0  0  0  0  0  0  0  0  0  0  0  0
   24.8764    6.1936    6.1253 O   0  0  0  0  0  0  0  0  0  0  0  0
   25.7534    7.9545    4.8260 C   0  0  0  0  0  0  0  0  0  0  0  0
   25.5348    8.8339    5.8831 C   0  0  0  0  0  0  0  0  0  0  0  0
   25.5061   10.2008    5.6527 C   0  0  0  0  0  0  0  0  0  0  0  0
   26.0053   10.6754    4.4531 C   0  0  0  0  0  0  0  0  0  0  0  0
   26.3134   12.0445    4.3463 C   0  0  0  0  0  0  0  0  0  0  0  0
   27.0100   12.5142    3.2438 C   0  0  0  0  0  0  0  0  0  0  0  0
   27.3059   11.6322    2.2132 C   0  0  0  0  0  0  0  0  0  0  0  0
   26.9297   10.2757    2.3016 C   0  0  0  0  0  0  0  0  0  0  0  0
   26.3192    9.7379    3.4362 C   0  0  0  0  0  0  0  0  0  0  0  0
   26.1225    8.3865    3.5885 N   0  0  0  0  0  0  0  0  0  0  0  0
   24.8387    3.5008    4.9556 C   0  0  0  0  0  0  0  0  0  0  0  0
   22.1369   -1.9028    6.0793 C   0  0  0  0  0  0  0  0  0  0  0  0
   21.0017   -2.6270    6.4640 C   0  0  0  0  0  0  0  0  0  0  0  0
   15.2106   -3.1824    5.2382 C   0  0  0  0  0  0  0  0  0  0  0  0
    0.8204    3.2895    5.7801 H   0  0  0  0  0  0  0  0  0  0  0  0
    0.6848    1.6406    6.4290 H   0  0  0  0  0  0  0  0  0  0  0  0
    0.7209    1.9166    4.6559 H   0  0  0  0  0  0  0  0  0  0  0  0
    2.6191    0.4501    4.4813 H   0  0  0  0  0  0  0  0  0  0  0  0
    2.5838    0.1807    6.2316 H   0  0  0  0  0  0  0  0  0  0  0  0
    4.8646    1.1877    6.4330 H   0  0  0  0  0  0  0  0  0  0  0  0
    4.9000    1.4565    4.6814 H   0  0  0  0  0  0  0  0  0  0  0  0
    6.7597   -0.2498    6.2524 H   0  0  0  0  0  0  0  0  0  0  0  0
    6.7965    0.0201    4.5013 H   0  0  0  0  0  0  0  0  0  0  0  0
    6.3926   -2.4177    4.1178 H   0  0  0  0  0  0  0  0  0  0  0  0
    6.3595   -2.6873    5.8693 H   0  0  0  0  0  0  0  0  0  0  0  0
    8.2558   -3.8727    3.9282 H   0  0  0  0  0  0  0  0  0  0  0  0
    8.2355   -4.1414    5.6829 H   0  0  0  0  0  0  0  0  0  0  0  0
   10.4919   -3.1637    5.8768 H   0  0  0  0  0  0  0  0  0  0  0  0
   10.5147   -2.8560    4.1156 H   0  0  0  0  0  0  0  0  0  0  0  0
   12.5332   -3.0037    4.9532 H   0  0  0  0  0  0  0  0  0  0  0  0
   14.1402   -7.6827    4.7443 H   0  0  0  0  0  0  0  0  0  0  0  0
    9.9223   -8.5351    4.2352 H   0  0  0  0  0  0  0  0  0  0  0  0
    9.9794   -6.9293    3.5173 H   0  0  0  0  0  0  0  0  0  0  0  0
    9.8297   -7.1456    5.3153 H   0  0  0  0  0  0  0  0  0  0  0  0
   16.7033   -5.5699    4.3381 H   0  0  0  0  0  0  0  0  0  0  0  0
   16.3378   -6.8669    5.4944 H   0  0  0  0  0  0  0  0  0  0  0  0
   17.5563   -5.1480    6.6778 H   0  0  0  0  0  0  0  0  0  0  0  0
   15.9349   -5.2230    7.2952 H   0  0  0  0  0  0  0  0  0  0  0  0
   17.1820   -1.6689    5.7393 H   0  0  0  0  0  0  0  0  0  0  0  0
   17.9115   -3.0661    4.9583 H   0  0  0  0  0  0  0  0  0  0  0  0
   18.8367   -3.7618    7.2646 H   0  0  0  0  0  0  0  0  0  0  0  0
   18.1274   -2.3120    7.9439 H   0  0  0  0  0  0  0  0  0  0  0  0
   18.7528   -0.0696    6.5126 H   0  0  0  0  0  0  0  0  0  0  0  0
   20.6945    1.1694    5.8231 H   0  0  0  0  0  0  0  0  0  0  0  0
   24.0115   -0.3900    5.2647 H   0  0  0  0  0  0  0  0  0  0  0  0
   25.8367    0.2930    5.6351 H   0  0  0  0  0  0  0  0  0  0  0  0
   27.9497    1.2387    5.0271 H   0  0  0  0  0  0  0  0  0  0  0  0
   30.2539    6.1681    3.2662 H   0  0  0  0  0  0  0  0  0  0  0  0
   30.4469    4.4948    2.7018 H   0  0  0  0  0  0  0  0  0  0  0  0
   30.7976    4.9234    4.4097 H   0  0  0  0  0  0  0  0  0  0  0  0
   26.8936    5.8392    3.7300 H   0  0  0  0  0  0  0  0  0  0  0  0
   25.4403    8.4668    6.9003 H   0  0  0  0  0  0  0  0  0  0  0  0
   25.2025   10.8786    6.4465 H   0  0  0  0  0  0  0  0  0  0  0  0
   26.1040   12.7295    5.1670 H   0  0  0  0  0  0  0  0  0  0  0  0
   27.3438   13.5499    3.2085 H   0  0  0  0  0  0  0  0  0  0  0  0
   27.8583   11.9905    1.3474 H   0  0  0  0  0  0  0  0  0  0  0  0
   27.1886    9.6128    1.4806 H   0  0  0  0  0  0  0  0  0  0  0  0
   23.9317    4.1123    4.9480 H   0  0  0  0  0  0  0  0  0  0  0  0
   23.0802   -2.4355    5.9875 H   0  0  0  0  0  0  0  0  0  0  0  0
   21.0858   -3.6960    6.6481 H   0  0  0  0  0  0  0  0  0  0  0  0
   15.6359   -2.9838    4.2441 H   0  0  0  0  0  0  0  0  0  0  0  0
   14.6995   -2.2642    5.5549 H   0  0  0  0  0  0  0  0  0  0  0  0
  1  2  1  0  0  0  0
  1 58  1  0  0  0  0
  1 59  1  0  0  0  0
  1 60  1  0  0  0  0
  2  3  1  0  0  0  0
  3  4  1  0  0  0  0
  3 61  1  0  0  0  0
  3 62  1  0  0  0  0
  4  5  1  0  0  0  0
  4 63  1  0  0  0  0
  4 64  1  0  0  0  0
  5  6  1  0  0  0  0
  6  7  1  0  0  0  0
  6 65  1  0  0  0  0
  6 66  1  0  0  0  0
  7  8  1  0  0  0  0
  7 67  1  0  0  0  0
  7 68  1  0  0  0  0
  8  9  1  0  0  0  0
  9 10  1  0  0  0  0
  9 69  1  0  0  0  0
  9 70  1  0  0  0  0
 10 11  1  0  0  0  0
 10 71  1  0  0  0  0
 10 72  1  0  0  0  0
 11 12  1  0  0  0  0
 12 13  1  0  0  0  0
 12 17  2  0  0  0  0
 13 14  2  0  0  0  0
 13 73  1  0  0  0  0
 14 15  1  0  0  0  0
 14 57  1  0  0  0  0
 15 16  2  0  0  0  0
 15 20  1  0  0  0  0
 16 17  1  0  0  0  0
 16 74  1  0  0  0  0
 17 18  1  0  0  0  0
 18 19  1  0  0  0  0
 19 75  1  0  0  0  0
 19 76  1  0  0  0  0
 19 77  1  0  0  0  0
 20 21  1  0  0  0  0
 20 78  1  0  0  0  0
 20 79  1  0  0  0  0
 21 22  1  0  0  0  0
 21 80  1  0  0  0  0
 21 81  1  0  0  0  0
 22 23  1  0  0  0  0
 22 57  1  0  0  0  0
 23 24  1  0  0  0  0
 23 82  1  0  0  0  0
 23 83  1  0  0  0  0
 24 25  1  0  0  0  0
 24 84  1  0  0  0  0
 24 85  1  0  0  0  0
 25 26  1  0  0  0  0
 25 56  2  0  0  0  0
 26 27  2  0  0  0  0
 26 86  1  0  0  0  0
 27 28  1  0  0  0  0
 27 87  1  0  0  0  0
 28 29  1  0  0  0  0
 28 55  2  0  0  0  0
 29 30  1  0  0  0  0
 29 88  1  0  0  0  0
 30 31  2  0  0  0  0
 30 32  1  0  0  0  0
 32 33  1  0  0  0  0
 32 54  2  0  0  0  0
 33 34  2  0  0  0  0
 33 89  1  0  0  0  0
 34 35  1  0  0  0  0
 34 90  1  0  0  0  0
 35 36  1  0  0  0  0
 35 40  2  0  0  0  0
 36 37  2  0  0  0  0
 36 38  1  0  0  0  0
 38 39  1  0  0  0  0
 39 91  1  0  0  0  0
 39 92  1  0  0  0  0
 39 93  1  0  0  0  0
 40 41  1  0  0  0  0
 40 54  1  0  0  0  0
 41 42  1  0  0  0  0
 41 94  1  0  0  0  0
 42 43  2  0  0  0  0
 42 44  1  0  0  0  0
 44 45  1  0  0  0  0
 44 53  2  0  0  0  0
 45 46  2  0  0  0  0
 45 95  1  0  0  0  0
 46 47  1  0  0  0  0
 46 96  1  0  0  0  0
 47 48  1  0  0  0  0
 47 52  2  0  0  0  0
 48 49  2  0  0  0  0
 48 97  1  0  0  0  0
 49 50  1  0  0  0  0
 49 98  1  0  0  0  0
 50 51  2  0  0  0  0
 50 99  1  0  0  0  0
 51 52  1  0  0  0  0
 51100  1  0  0  0  0
 52 53  1  0  0  0  0
 54101  1  0  0  0  0
 55 56  1  0  0  0  0
 55102  1  0  0  0  0
 56103  1  0  0  0  0
 57104  1  0  0  0  0
 57105  1  0  0  0  0
M  END
>  <Energy>
270.973

$$$$