127042944
  -OEChem-03242010103D

 54 57  0     0  0  0  0  0  0999 V2000
    2.2714    0.7202    0.2541 O   0  0  0  0  0  0  0  0  0  0  0  0
    3.7294   -2.9941   -0.5457 O   0  0  0  0  0  0  0  0  0  0  0  0
    6.1948   -2.0248   -0.4983 O   0  0  0  0  0  0  0  0  0  0  0  0
    6.6184    2.6249    0.3716 O   0  0  0  0  0  0  0  0  0  0  0  0
   -8.4252   -1.2644    1.4165 O   0  5  0  0  0  0  0  0  0  0  0  0
   -6.7857   -0.3982    2.5915 O   0  0  0  0  0  0  0  0  0  0  0  0
   -2.5513    0.9160   -0.1026 N   0  0  0  0  0  0  0  0  0  0  0  0
    0.0970   -0.0856    0.2240 N   0  0  0  0  0  0  0  0  0  0  0  0
   -7.3397   -0.6394    1.4919 N   0  3  0  0  0  0  0  0  0  0  0  0
   -1.4720    1.7943    0.3714 C   0  0  0  0  0  0  0  0  0  0  0  0
   -2.0166   -0.1004   -1.0206 C   0  0  0  0  0  0  0  0  0  0  0  0
   -0.9447   -0.9479   -0.3325 C   0  0  0  0  0  0  0  0  0  0  0  0
   -0.3881    0.9884    1.0900 C   0  0  0  0  0  0  0  0  0  0  0  0
   -3.6001    1.6978   -0.7564 C   0  0  0  0  0  0  0  0  0  0  0  0
    1.4249   -0.3707    0.0927 C   0  0  0  0  0  0  0  0  0  0  0  0
   -4.9028    0.9456   -0.8200 C   0  0  0  0  0  0  0  0  0  0  0  0
    1.8725   -1.6095   -0.1719 C   0  0  0  0  0  0  0  0  0  0  0  0
    3.6258    0.5348    0.1410 C   0  0  0  0  0  0  0  0  0  0  0  0
    4.2003   -0.7047   -0.1304 C   0  0  0  0  0  0  0  0  0  0  0  0
   -5.5123    0.5054    0.3549 C   0  0  0  0  0  0  0  0  0  0  0  0
    3.3192   -1.8674   -0.3047 C   0  0  0  0  0  0  0  0  0  0  0  0
   -5.5002    0.6888   -2.0542 C   0  0  0  0  0  0  0  0  0  0  0  0
   -6.7192   -0.1916    0.2958 C   0  0  0  0  0  0  0  0  0  0  0  0
    5.5872   -0.8347   -0.2346 C   0  0  0  0  0  0  0  0  0  0  0  0
    4.4380    1.6565    0.3104 C   0  0  0  0  0  0  0  0  0  0  0  0
   -6.7068   -0.0084   -2.1133 C   0  0  0  0  0  0  0  0  0  0  0  0
   -7.3166   -0.4484   -0.9384 C   0  0  0  0  0  0  0  0  0  0  0  0
    5.8239    1.5320    0.2071 C   0  0  0  0  0  0  0  0  0  0  0  0
    6.3971    0.2889   -0.0645 C   0  0  0  0  0  0  0  0  0  0  0  0
    6.5549   -2.8309    0.6221 C   0  0  0  0  0  0  0  0  0  0  0  0
    8.0265    2.4273    0.2531 C   0  0  0  0  0  0  0  0  0  0  0  0
   -1.5888    0.3725   -1.9152 H   0  0  0  0  0  0  0  0  0  0  0  0
   -2.8114   -0.7765   -1.3565 H   0  0  0  0  0  0  0  0  0  0  0  0
   -1.0268    2.3467   -0.4670 H   0  0  0  0  0  0  0  0  0  0  0  0
   -1.8714    2.5325    1.0775 H   0  0  0  0  0  0  0  0  0  0  0  0
    0.4092    1.6736    1.3999 H   0  0  0  0  0  0  0  0  0  0  0  0
   -0.7949    0.5470    2.0090 H   0  0  0  0  0  0  0  0  0  0  0  0
   -1.3880   -1.5496    0.4708 H   0  0  0  0  0  0  0  0  0  0  0  0
   -0.5616   -1.6414   -1.0894 H   0  0  0  0  0  0  0  0  0  0  0  0
   -3.2846    2.0399   -1.7513 H   0  0  0  0  0  0  0  0  0  0  0  0
   -3.8086    2.6115   -0.1821 H   0  0  0  0  0  0  0  0  0  0  0  0
    1.2280   -2.4747   -0.2736 H   0  0  0  0  0  0  0  0  0  0  0  0
   -5.0332    0.7217    1.3072 H   0  0  0  0  0  0  0  0  0  0  0  0
   -5.0362    1.0246   -2.9777 H   0  0  0  0  0  0  0  0  0  0  0  0
    3.9942    2.6260    0.5223 H   0  0  0  0  0  0  0  0  0  0  0  0
   -7.1714   -0.2085   -3.0745 H   0  0  0  0  0  0  0  0  0  0  0  0
   -8.2562   -0.9883   -1.0229 H   0  0  0  0  0  0  0  0  0  0  0  0
    7.4674    0.1342   -0.1570 H   0  0  0  0  0  0  0  0  0  0  0  0
    6.8379   -3.8212    0.2550 H   0  0  0  0  0  0  0  0  0  0  0  0
    5.7205   -2.9411    1.3221 H   0  0  0  0  0  0  0  0  0  0  0  0
    7.4141   -2.3901    1.1372 H   0  0  0  0  0  0  0  0  0  0  0  0
    8.5035    3.3999    0.4133 H   0  0  0  0  0  0  0  0  0  0  0  0
    8.3037    2.0982   -0.7541 H   0  0  0  0  0  0  0  0  0  0  0  0
    8.4056    1.7545    1.0299 H   0  0  0  0  0  0  0  0  0  0  0  0
  1 15  1  0  0  0  0
  1 18  1  0  0  0  0
  2 21  2  0  0  0  0
  3 24  1  0  0  0  0
  3 30  1  0  0  0  0
  4 28  1  0  0  0  0
  4 31  1  0  0  0  0
  5  9  1  0  0  0  0
  6  9  2  0  0  0  0
  7 10  1  0  0  0  0
  7 11  1  0  0  0  0
  7 14  1  0  0  0  0
  8 12  1  0  0  0  0
  8 13  1  0  0  0  0
  8 15  1  0  0  0  0
  9 23  1  0  0  0  0
 10 13  1  0  0  0  0
 10 34  1  0  0  0  0
 10 35  1  0  0  0  0
 11 12  1  0  0  0  0
 11 32  1  0  0  0  0
 11 33  1  0  0  0  0
 12 38  1  0  0  0  0
 12 39  1  0  0  0  0
 13 36  1  0  0  0  0
 13 37  1  0  0  0  0
 14 16  1  0  0  0  0
 14 40  1  0  0  0  0
 14 41  1  0  0  0  0
 15 17  2  0  0  0  0
 16 20  2  0  0  0  0
 16 22  1  0  0  0  0
 17 21  1  0  0  0  0
 17 42  1  0  0  0  0
 18 19  2  0  0  0  0
 18 25  1  0  0  0  0
 19 21  1  0  0  0  0
 19 24  1  0  0  0  0
 20 23  1  0  0  0  0
 20 43  1  0  0  0  0
 22 26  2  0  0  0  0
 22 44  1  0  0  0  0
 23 27  2  0  0  0  0
 24 29  2  0  0  0  0
 25 28  2  0  0  0  0
 25 45  1  0  0  0  0
 26 27  1  0  0  0  0
 26 46  1  0  0  0  0
 27 47  1  0  0  0  0
 28 29  1  0  0  0  0
 29 48  1  0  0  0  0
 30 49  1  0  0  0  0
 30 50  1  0  0  0  0
 30 51  1  0  0  0  0
 31 52  1  0  0  0  0
 31 53  1  0  0  0  0
 31 54  1  0  0  0  0
M  CHG  2   5  -1   9   1
M  END
> <PUBCHEM_COMPOUND_CID>
127042944

> <PUBCHEM_CONFORMER_RMSD>
1

> <PUBCHEM_CONFORMER_DIVERSEORDER>
3
39
54
5
20
37
29
46
16
30
28
41
45
25
33
44
22
38
51
8
32
55
13
42
43
53
36
35
48
26
15
10
49
17
40
9
56
31
58
47
50
24
6
34
11
18
19
57
23
21
27
4
12
52
1
7
14
2

> <PUBCHEM_MMFF94_PARTIAL_CHARGES>
38
1 -0.16
10 0.27
11 0.27
12 0.37
13 0.37
14 0.41
15 0.18
16 -0.14
17 -0.14
18 0.08
19 0.09
2 -0.57
20 -0.15
21 0.47
22 -0.15
23 0.13
24 0.08
25 -0.15
26 -0.15
27 -0.15
28 0.08
29 -0.15
3 -0.36
30 0.28
31 0.28
4 -0.36
42 0.15
43 0.15
44 0.15
45 0.15
46 0.15
47 0.15
48 0.15
5 -0.52
6 -0.52
7 -0.81
8 -0.84
9 0.91

> <PUBCHEM_EFFECTIVE_ROTOR_COUNT>
7.2

> <PUBCHEM_PHARMACOPHORE_FEATURES>
13
1 1 acceptor
1 2 acceptor
1 3 acceptor
1 4 acceptor
1 5 acceptor
1 5 anion
1 6 acceptor
1 7 cation
1 8 cation
6 1 15 17 18 19 21 rings
6 16 20 22 23 26 27 rings
6 18 19 24 25 28 29 rings
6 7 8 10 11 12 13 rings

> <PUBCHEM_HEAVY_ATOM_COUNT>
31

> <PUBCHEM_ATOM_DEF_STEREO_COUNT>
0

> <PUBCHEM_ATOM_UDEF_STEREO_COUNT>
0

> <PUBCHEM_BOND_DEF_STEREO_COUNT>
0

> <PUBCHEM_BOND_UDEF_STEREO_COUNT>
0

> <PUBCHEM_ISOTOPIC_ATOM_COUNT>
0

> <PUBCHEM_COMPONENT_COUNT>
1

> <PUBCHEM_CACTVS_TAUTO_COUNT>
1

> <PUBCHEM_CONFORMER_ID>
0792858000000003

> <PUBCHEM_MMFF94_ENERGY>
113.3894

> <PUBCHEM_FEATURE_SELFOVERLAP>
66.096

> <PUBCHEM_SHAPE_FINGERPRINT>
10 15 18113615724770183128
10299344 5 17560799940099450493
10411042 1 17980197488787010758
10595046 47 18201153269758713892
10674148 151 14908183062497795260
12166972 35 18408885114159989468
12236239 1 17988921145887500676
12717326 120 16010170880590927569
12730499 353 18408603643725762862
13383668 254 16342582936592069234
13533116 47 18130783443829117768
13782708 43 17969501507035435938
14251764 18 17418373610679475869
14294032 229 15338019493735285219
14461889 52 17749391485393227130
14849402 71 17845936346249936985
14856354 85 16559027225696270621
150020 25 18040429967498668319
15064986 266 18338806627855647057
15183329 4 17275098436328331493
15419008 91 17603852421565612725
15444296 121 15913047668830146209
15461852 350 15936412242773860809
15510794 2 18186799176234616535
1577012 14 17632859724164868041
18335252 98 18335142020092922225
18608769 82 18337390547326300139
19611394 137 18041287659551479945
20157964 124 18411978066781623044
21267235 1 18200597999686515110
21521721 280 18342177777745501171
21623969 137 18412269415566692583
21781055 127 16199882687317156742
220451 1 17275382106027802239
22149856 69 18201163165363293145
23081809 10 17632855313154138845
23424782 7 18187650219208237259
23516275 137 17131294405611838143
23522609 53 17417545699593370121
24771750 20 17681284569979462292
2747138 104 17967537869794870333
335352 9 18413390926907937438
3418910 222 17895486890028295197
34797466 226 17917998269946578276
397830 11 18040721415178540707
4073 2 18334294296607431435
4149490 64 18334853927447782922
4258327 124 17750529532074556100
44880568 143 17313384496486281277
58083652 198 17846487137614913313
6371380 46 11167942463232682997
999808 66 18335425673610036515

> <PUBCHEM_SHAPE_MULTIPOLES>
587.81
26.18
2.46
1.38
16.04
0.51
0.19
0.02
2.61
-6.41
0.1
4.23
0.13
1.61

> <PUBCHEM_SHAPE_SELFOVERLAP>
1275.55

> <PUBCHEM_SHAPE_VOLUME>
323.5

> <PUBCHEM_COORDINATE_TYPE>
2
5
10

$$$$