2298706
  -OEChem-03242010103D

 60 64  0     0  0  0  0  0  0999 V2000
   -6.5350    1.3607    0.3150 O   0  0  0  0  0  0  0  0  0  0  0  0
   -0.6998   -4.3854   -0.5409 O   0  0  0  0  0  0  0  0  0  0  0  0
   -4.4443   -0.5458    0.6239 N   0  0  0  0  0  0  0  0  0  0  0  0
   -1.6017   -2.2645   -0.6272 N   0  0  0  0  0  0  0  0  0  0  0  0
    2.4304   -1.1245   -0.1219 N   0  0  0  0  0  0  0  0  0  0  0  0
    0.2489   -0.1368   -0.3724 N   0  0  0  0  0  0  0  0  0  0  0  0
    3.0155   -2.3547   -0.0835 N   0  0  0  0  0  0  0  0  0  0  0  0
   -3.7272   -1.5718    1.3783 C   0  0  0  0  0  0  0  0  0  0  0  0
   -4.4267    0.7370    1.3409 C   0  0  0  0  0  0  0  0  0  0  0  0
   -5.8305   -0.9601    0.3673 C   0  0  0  0  0  0  0  0  0  0  0  0
   -3.6663   -2.8724    0.5758 C   0  0  0  0  0  0  0  0  0  0  0  0
   -5.1912    1.7880    0.5412 C   0  0  0  0  0  0  0  0  0  0  0  0
   -6.5612    0.1308   -0.4103 C   0  0  0  0  0  0  0  0  0  0  0  0
   -2.9662   -2.6935   -0.7682 C   0  0  0  0  0  0  0  0  0  0  0  0
    0.7668   -2.5790   -0.3525 C   0  0  0  0  0  0  0  0  0  0  0  0
    1.0500   -1.2336   -0.2928 C   0  0  0  0  0  0  0  0  0  0  0  0
   -0.5426   -3.1651   -0.5213 C   0  0  0  0  0  0  0  0  0  0  0  0
    3.0497    0.1299   -0.0174 C   0  0  0  0  0  0  0  0  0  0  0  0
    0.8279    1.0263   -0.2899 C   0  0  0  0  0  0  0  0  0  0  0  0
    2.0070   -3.2135   -0.2191 C   0  0  0  0  0  0  0  0  0  0  0  0
    2.2966    1.2413   -0.0894 C   0  0  0  0  0  0  0  0  0  0  0  0
    4.5030    0.2605    0.1928 C   0  0  0  0  0  0  0  0  0  0  0  0
   -0.0105    2.2508   -0.3800 C   0  0  0  0  0  0  0  0  0  0  0  0
    5.0211    0.2848    1.4879 C   0  0  0  0  0  0  0  0  0  0  0  0
    5.3605    0.3596   -0.9031 C   0  0  0  0  0  0  0  0  0  0  0  0
    0.3711    3.4042    0.3014 C   0  0  0  0  0  0  0  0  0  0  0  0
   -1.1740    2.2398   -1.1458 C   0  0  0  0  0  0  0  0  0  0  0  0
    6.3961    0.4086    1.6870 C   0  0  0  0  0  0  0  0  0  0  0  0
    6.7356    0.4833   -0.7039 C   0  0  0  0  0  0  0  0  0  0  0  0
    7.2533    0.5077    0.5911 C   0  0  0  0  0  0  0  0  0  0  0  0
   -0.4152    4.5531    0.2167 C   0  0  0  0  0  0  0  0  0  0  0  0
   -1.9602    3.3889   -1.2305 C   0  0  0  0  0  0  0  0  0  0  0  0
   -1.5808    4.5455   -0.5492 C   0  0  0  0  0  0  0  0  0  0  0  0
   -4.2106   -1.7660    2.3445 H   0  0  0  0  0  0  0  0  0  0  0  0
   -2.7074   -1.2328    1.5987 H   0  0  0  0  0  0  0  0  0  0  0  0
   -3.3951    1.0798    1.4816 H   0  0  0  0  0  0  0  0  0  0  0  0
   -4.8871    0.6257    2.3313 H   0  0  0  0  0  0  0  0  0  0  0  0
   -5.8901   -1.8619   -0.2474 H   0  0  0  0  0  0  0  0  0  0  0  0
   -6.3555   -1.1501    1.3125 H   0  0  0  0  0  0  0  0  0  0  0  0
   -4.6511   -3.3285    0.4371 H   0  0  0  0  0  0  0  0  0  0  0  0
   -3.0986   -3.5996    1.1721 H   0  0  0  0  0  0  0  0  0  0  0  0
   -5.2294    2.7281    1.1006 H   0  0  0  0  0  0  0  0  0  0  0  0
   -4.7086    1.9937   -0.4215 H   0  0  0  0  0  0  0  0  0  0  0  0
   -6.1230    0.2826   -1.4044 H   0  0  0  0  0  0  0  0  0  0  0  0
   -7.6102   -0.1493   -0.5503 H   0  0  0  0  0  0  0  0  0  0  0  0
   -2.9830   -3.6471   -1.3082 H   0  0  0  0  0  0  0  0  0  0  0  0
   -3.4785   -1.9612   -1.4002 H   0  0  0  0  0  0  0  0  0  0  0  0
   -1.4333   -1.2644   -0.5976 H   0  0  0  0  0  0  0  0  0  0  0  0
    2.2270   -4.2717   -0.2156 H   0  0  0  0  0  0  0  0  0  0  0  0
    2.7295    2.2320   -0.0438 H   0  0  0  0  0  0  0  0  0  0  0  0
    4.3659    0.2077    2.3523 H   0  0  0  0  0  0  0  0  0  0  0  0
    4.9722    0.3411   -1.9186 H   0  0  0  0  0  0  0  0  0  0  0  0
    1.2482    3.4437    0.9398 H   0  0  0  0  0  0  0  0  0  0  0  0
   -1.4863    1.3521   -1.6892 H   0  0  0  0  0  0  0  0  0  0  0  0
    6.7995    0.4273    2.6952 H   0  0  0  0  0  0  0  0  0  0  0  0
    7.4032    0.5603   -1.5571 H   0  0  0  0  0  0  0  0  0  0  0  0
    8.3240    0.6039    0.7462 H   0  0  0  0  0  0  0  0  0  0  0  0
   -0.1252    5.4512    0.7542 H   0  0  0  0  0  0  0  0  0  0  0  0
   -2.8672    3.3838   -1.8279 H   0  0  0  0  0  0  0  0  0  0  0  0
   -2.1942    5.4394   -0.6137 H   0  0  0  0  0  0  0  0  0  0  0  0
  1 12  1  0  0  0  0
  1 13  1  0  0  0  0
  2 17  2  0  0  0  0
  3  8  1  0  0  0  0
  3  9  1  0  0  0  0
  3 10  1  0  0  0  0
  4 14  1  0  0  0  0
  4 17  1  0  0  0  0
  4 48  1  0  0  0  0
  5  7  1  0  0  0  0
  5 16  1  0  0  0  0
  5 18  1  0  0  0  0
  6 16  1  0  0  0  0
  6 19  2  0  0  0  0
  7 20  2  0  0  0  0
  8 11  1  0  0  0  0
  8 34  1  0  0  0  0
  8 35  1  0  0  0  0
  9 12  1  0  0  0  0
  9 36  1  0  0  0  0
  9 37  1  0  0  0  0
 10 13  1  0  0  0  0
 10 38  1  0  0  0  0
 10 39  1  0  0  0  0
 11 14  1  0  0  0  0
 11 40  1  0  0  0  0
 11 41  1  0  0  0  0
 12 42  1  0  0  0  0
 12 43  1  0  0  0  0
 13 44  1  0  0  0  0
 13 45  1  0  0  0  0
 14 46  1  0  0  0  0
 14 47  1  0  0  0  0
 15 16  2  0  0  0  0
 15 17  1  0  0  0  0
 15 20  1  0  0  0  0
 18 21  2  0  0  0  0
 18 22  1  0  0  0  0
 19 21  1  0  0  0  0
 19 23  1  0  0  0  0
 20 49  1  0  0  0  0
 21 50  1  0  0  0  0
 22 24  2  0  0  0  0
 22 25  1  0  0  0  0
 23 26  2  0  0  0  0
 23 27  1  0  0  0  0
 24 28  1  0  0  0  0
 24 51  1  0  0  0  0
 25 29  2  0  0  0  0
 25 52  1  0  0  0  0
 26 31  1  0  0  0  0
 26 53  1  0  0  0  0
 27 32  2  0  0  0  0
 27 54  1  0  0  0  0
 28 30  2  0  0  0  0
 28 55  1  0  0  0  0
 29 30  1  0  0  0  0
 29 56  1  0  0  0  0
 30 57  1  0  0  0  0
 31 33  2  0  0  0  0
 31 58  1  0  0  0  0
 32 33  1  0  0  0  0
 32 59  1  0  0  0  0
 33 60  1  0  0  0  0
M  END
> <PUBCHEM_COMPOUND_CID>
2298706

> <PUBCHEM_CONFORMER_RMSD>
1

> <PUBCHEM_CONFORMER_DIVERSEORDER>
1
65
15
50
32
37
71
44
48
3
13
27
22
18
40
69
54
2
49
74
72
42
64
59
31
38
73
52
62
14
68
34
56
19
6
23
43
29
35
47
5
9
10
51
63
16
70
25
55
24
21
58
7
41
39
45
67
57
4
12
33
53
60
17
36
30
11
46
66
8
28
20
26
61

> <PUBCHEM_MMFF94_PARTIAL_CHARGES>
45
1 -0.56
10 0.27
12 0.28
13 0.28
14 0.3
15 -0.09
16 -0.03
17 0.72
18 -0.06
19 0.35
2 -0.57
20 0.14
21 -0.14
22 0.03
23 0.09
24 -0.15
25 -0.15
26 -0.15
27 -0.15
28 -0.15
29 -0.15
3 -0.81
30 -0.15
31 -0.15
32 -0.15
33 -0.15
4 -0.73
48 0.37
49 0.15
5 0.6
50 0.15
51 0.15
52 0.15
53 0.15
54 0.15
55 0.15
56 0.15
57 0.15
58 0.15
59 0.15
6 -0.58
60 0.15
7 -0.71
8 0.27
9 0.27

> <PUBCHEM_EFFECTIVE_ROTOR_COUNT>
9.2

> <PUBCHEM_PHARMACOPHORE_FEATURES>
11
1 1 acceptor
1 2 acceptor
1 3 cation
1 4 donor
1 6 acceptor
1 7 acceptor
5 5 7 15 16 20 rings
6 1 3 9 10 12 13 rings
6 22 24 25 28 29 30 rings
6 23 26 27 31 32 33 rings
6 5 6 16 18 19 21 rings

> <PUBCHEM_HEAVY_ATOM_COUNT>
33

> <PUBCHEM_ATOM_DEF_STEREO_COUNT>
0

> <PUBCHEM_ATOM_UDEF_STEREO_COUNT>
0

> <PUBCHEM_BOND_DEF_STEREO_COUNT>
0

> <PUBCHEM_BOND_UDEF_STEREO_COUNT>
0

> <PUBCHEM_ISOTOPIC_ATOM_COUNT>
0

> <PUBCHEM_COMPONENT_COUNT>
1

> <PUBCHEM_CACTVS_TAUTO_COUNT>
2

> <PUBCHEM_CONFORMER_ID>
0023135200000001

> <PUBCHEM_MMFF94_ENERGY>
80.5012

> <PUBCHEM_FEATURE_SELFOVERLAP>
55.95

> <PUBCHEM_SHAPE_FINGERPRINT>
10006869 2 18338507530786506250
10815517 723 18201147871052992423
1100329 8 18339644571832999748
11136131 41 18190173482251363010
12422481 6 18410291406853890626
12788726 201 18260822740018014530
12838862 33 18339627989481085053
13140716 1 18192709166992164818
13402501 40 18336548231689210629
13560911 43 18264492961361030931
14028597 1 17458615701469150008
14068700 675 18057879341822979519
14117953 113 18411702093288909709
14294032 229 18335991861515625412
14466204 15 18410858806171806531
1454969 45 18408890637566968820
14725015 67 17970916789834867043
14790565 3 18193286406006757884
14955137 171 18118977033714643266
15131766 46 15408905185252462624
15328829 1 17531826739645838196
16087824 20 18410013217738274837
17627616 140 17688319296865645829
18608769 82 18412825785909589876
19611394 137 17970644093570972787
21133410 38 17769380427616796001
21298829 104 18271530802230561841
21796203 349 17901141738168845009
25223398 141 18114453496801852932
3380486 145 18336001800032512033
350125 39 18409450315145557708
4409770 3 18261376841690037709
469060 322 18338530646490768320
5047190 48 18338521841448172861
5171179 24 17765158263441050575
59755656 215 18341337708408007966
6004065 56 18411692215259598605
653340 110 18195246611864022113
9961470 85 17910382124657454489

> <PUBCHEM_SHAPE_MULTIPOLES>
642.48
15.37
5.51
1.14
6.23
1.91
0.26
0.84
4.58
-4.47
-1.29
0.33
0.15
0.52

> <PUBCHEM_SHAPE_SELFOVERLAP>
1399.168

> <PUBCHEM_SHAPE_VOLUME>
348.6

> <PUBCHEM_COORDINATE_TYPE>
2
5
10

$$$$