56951135
  -OEChem-03242010103D

 60 64  0     0  0  0  0  0  0999 V2000
   -0.2257    0.7577   -1.0185 O   0  0  0  0  0  0  0  0  0  0  0  0
    0.9668   -2.2313   -1.9352 O   0  0  0  0  0  0  0  0  0  0  0  0
   -4.7598    1.0176    0.6792 O   0  0  0  0  0  0  0  0  0  0  0  0
   -3.3951   -1.2476    0.5819 O   0  0  0  0  0  0  0  0  0  0  0  0
    4.7647    0.2246    0.2026 N   0  0  0  0  0  0  0  0  0  0  0  0
    2.2189   -0.9192   -0.4779 N   0  0  0  0  0  0  0  0  0  0  0  0
    4.6308   -0.6459   -0.9731 C   0  0  0  0  0  0  0  0  0  0  0  0
    3.5298    0.9930    0.4070 C   0  0  0  0  0  0  0  0  0  0  0  0
    2.3257    0.0681    0.6038 C   0  0  0  0  0  0  0  0  0  0  0  0
    3.4669   -1.6172   -0.7898 C   0  0  0  0  0  0  0  0  0  0  0  0
    5.9090    1.1222    0.0492 C   0  0  0  0  0  0  0  0  0  0  0  0
    1.0445   -1.3172   -1.1124 C   0  0  0  0  0  0  0  0  0  0  0  0
    7.2086    0.4343    0.3725 C   0  0  0  0  0  0  0  0  0  0  0  0
   -0.1993   -0.5983   -0.7700 C   0  0  0  0  0  0  0  0  0  0  0  0
    7.9195   -0.2209   -0.6329 C   0  0  0  0  0  0  0  0  0  0  0  0
    7.7017    0.4522    1.6771 C   0  0  0  0  0  0  0  0  0  0  0  0
   -1.2016   -1.3159   -0.2483 C   0  0  0  0  0  0  0  0  0  0  0  0
   -2.4973    0.8256   -0.1572 C   0  0  0  0  0  0  0  0  0  0  0  0
   -1.3735    1.4437   -0.7072 C   0  0  0  0  0  0  0  0  0  0  0  0
   -2.4581   -0.6237    0.1033 C   0  0  0  0  0  0  0  0  0  0  0  0
    9.1236   -0.8582   -0.3337 C   0  0  0  0  0  0  0  0  0  0  0  0
    8.9059   -0.1851    1.9765 C   0  0  0  0  0  0  0  0  0  0  0  0
    9.6168   -0.8403    0.9710 C   0  0  0  0  0  0  0  0  0  0  0  0
   -3.6391    1.5732    0.1401 C   0  0  0  0  0  0  0  0  0  0  0  0
   -1.3863    2.8149   -0.9628 C   0  0  0  0  0  0  0  0  0  0  0  0
   -3.6487    2.9448   -0.1168 C   0  0  0  0  0  0  0  0  0  0  0  0
   -2.5253    3.5643   -0.6668 C   0  0  0  0  0  0  0  0  0  0  0  0
   -5.9658    1.1309   -0.0740 C   0  0  0  0  0  0  0  0  0  0  0  0
   -6.8521   -0.0380    0.2418 C   0  0  0  0  0  0  0  0  0  0  0  0
   -6.7601   -1.2073   -0.5130 C   0  0  0  0  0  0  0  0  0  0  0  0
   -7.7683    0.0450    1.2902 C   0  0  0  0  0  0  0  0  0  0  0  0
   -7.5843   -2.2939   -0.2194 C   0  0  0  0  0  0  0  0  0  0  0  0
   -8.5924   -1.0414    1.5839 C   0  0  0  0  0  0  0  0  0  0  0  0
   -8.5004   -2.2109    0.8290 C   0  0  0  0  0  0  0  0  0  0  0  0
    3.3434    1.6565   -0.4482 H   0  0  0  0  0  0  0  0  0  0  0  0
    3.6213    1.6238    1.2996 H   0  0  0  0  0  0  0  0  0  0  0  0
    5.5244   -1.2576   -1.1235 H   0  0  0  0  0  0  0  0  0  0  0  0
    4.4739   -0.0527   -1.8838 H   0  0  0  0  0  0  0  0  0  0  0  0
    1.4186    0.6615    0.7204 H   0  0  0  0  0  0  0  0  0  0  0  0
    2.4445   -0.5041    1.5329 H   0  0  0  0  0  0  0  0  0  0  0  0
    3.6668   -2.3034    0.0427 H   0  0  0  0  0  0  0  0  0  0  0  0
    3.3526   -2.2274   -1.6919 H   0  0  0  0  0  0  0  0  0  0  0  0
    5.8187    1.9747    0.7373 H   0  0  0  0  0  0  0  0  0  0  0  0
    5.9493    1.5726   -0.9524 H   0  0  0  0  0  0  0  0  0  0  0  0
    7.5591   -0.2297   -1.6579 H   0  0  0  0  0  0  0  0  0  0  0  0
    7.1567    0.9570    2.4704 H   0  0  0  0  0  0  0  0  0  0  0  0
   -1.1376   -2.3827   -0.0671 H   0  0  0  0  0  0  0  0  0  0  0  0
    9.6793   -1.3650   -1.1173 H   0  0  0  0  0  0  0  0  0  0  0  0
    9.2898   -0.1716    2.9924 H   0  0  0  0  0  0  0  0  0  0  0  0
   10.5548   -1.3358    1.2038 H   0  0  0  0  0  0  0  0  0  0  0  0
   -0.5160    3.3054   -1.3900 H   0  0  0  0  0  0  0  0  0  0  0  0
   -4.5205    3.5505    0.1159 H   0  0  0  0  0  0  0  0  0  0  0  0
   -2.5370    4.6327   -0.8624 H   0  0  0  0  0  0  0  0  0  0  0  0
   -5.7614    1.1577   -1.1531 H   0  0  0  0  0  0  0  0  0  0  0  0
   -6.4700    2.0690    0.1883 H   0  0  0  0  0  0  0  0  0  0  0  0
   -6.0482   -1.2848   -1.3306 H   0  0  0  0  0  0  0  0  0  0  0  0
   -7.8480    0.9498    1.8869 H   0  0  0  0  0  0  0  0  0  0  0  0
   -7.5120   -3.2046   -0.8066 H   0  0  0  0  0  0  0  0  0  0  0  0
   -9.3054   -0.9772    2.4007 H   0  0  0  0  0  0  0  0  0  0  0  0
   -9.1419   -3.0568    1.0579 H   0  0  0  0  0  0  0  0  0  0  0  0
  1 14  1  0  0  0  0
  1 19  1  0  0  0  0
  2 12  2  0  0  0  0
  3 24  1  0  0  0  0
  3 28  1  0  0  0  0
  4 20  2  0  0  0  0
  5  7  1  0  0  0  0
  5  8  1  0  0  0  0
  5 11  1  0  0  0  0
  6  9  1  0  0  0  0
  6 10  1  0  0  0  0
  6 12  1  0  0  0  0
  7 10  1  0  0  0  0
  7 37  1  0  0  0  0
  7 38  1  0  0  0  0
  8  9  1  0  0  0  0
  8 35  1  0  0  0  0
  8 36  1  0  0  0  0
  9 39  1  0  0  0  0
  9 40  1  0  0  0  0
 10 41  1  0  0  0  0
 10 42  1  0  0  0  0
 11 13  1  0  0  0  0
 11 43  1  0  0  0  0
 11 44  1  0  0  0  0
 12 14  1  0  0  0  0
 13 15  2  0  0  0  0
 13 16  1  0  0  0  0
 14 17  2  0  0  0  0
 15 21  1  0  0  0  0
 15 45  1  0  0  0  0
 16 22  2  0  0  0  0
 16 46  1  0  0  0  0
 17 20  1  0  0  0  0
 17 47  1  0  0  0  0
 18 19  2  0  0  0  0
 18 20  1  0  0  0  0
 18 24  1  0  0  0  0
 19 25  1  0  0  0  0
 21 23  2  0  0  0  0
 21 48  1  0  0  0  0
 22 23  1  0  0  0  0
 22 49  1  0  0  0  0
 23 50  1  0  0  0  0
 24 26  2  0  0  0  0
 25 27  2  0  0  0  0
 25 51  1  0  0  0  0
 26 27  1  0  0  0  0
 26 52  1  0  0  0  0
 27 53  1  0  0  0  0
 28 29  1  0  0  0  0
 28 54  1  0  0  0  0
 28 55  1  0  0  0  0
 29 30  2  0  0  0  0
 29 31  1  0  0  0  0
 30 32  1  0  0  0  0
 30 56  1  0  0  0  0
 31 33  2  0  0  0  0
 31 57  1  0  0  0  0
 32 34  2  0  0  0  0
 32 58  1  0  0  0  0
 33 34  1  0  0  0  0
 33 59  1  0  0  0  0
 34 60  1  0  0  0  0
M  END
> <PUBCHEM_COMPOUND_CID>
56951135

> <PUBCHEM_CONFORMER_RMSD>
1

> <PUBCHEM_CONFORMER_DIVERSEORDER>
2
53
132
151
123
59
20
186
102
101
13
63
162
69
52
118
121
30
91
188
197
125
199
174
133
179
76
187
155
85
140
178
111
131
67
73
141
74
99
200
18
117
171
41
181
72
31
163
66
87
135
190
75
89
154
182
77
127
173
86
198
119
110
70
40
37
65
94
158
138
36
97
49
180
92
32
29
168
164
120
195
184
107
149
12
193
108
103
192
122
17
83
95
143
129
80
167
48
170
79
148
22
177
93
112
165
27
172
46
185
169
191
104
115
44
130
156
54
152
128
55
113
51
43
161
175
159
134
144
19
146
126
96
61
136
6
71
194
142
25
137
114
56
100
68
57
35
60
28
98
150
166
38
84
45
64
50
11
147
58
7
34
78
157
153
82
88
16
8
160
109
42
24
124
189
145
196
106
9
105
90
116
183
62
139
26
15
5
81
176
39
23
4
47
3
33
14
1
10
21

> <PUBCHEM_MMFF94_PARTIAL_CHARGES>
48
1 -0.16
10 0.3
11 0.41
12 0.62
13 -0.14
14 0.09
15 -0.15
16 -0.15
17 -0.14
18 0.09
19 0.08
2 -0.57
20 0.47
21 -0.15
22 -0.15
23 -0.15
24 0.08
25 -0.15
26 -0.15
27 -0.15
28 0.42
29 -0.14
3 -0.36
30 -0.15
31 -0.15
32 -0.15
33 -0.15
34 -0.15
4 -0.57
45 0.15
46 0.15
47 0.15
48 0.15
49 0.15
5 -0.81
50 0.15
51 0.15
52 0.15
53 0.15
56 0.15
57 0.15
58 0.15
59 0.15
6 -0.66
60 0.15
7 0.27
8 0.27
9 0.3

> <PUBCHEM_EFFECTIVE_ROTOR_COUNT>
8.2

> <PUBCHEM_PHARMACOPHORE_FEATURES>
10
1 1 acceptor
1 2 acceptor
1 3 acceptor
1 4 acceptor
1 5 cation
6 1 14 17 18 19 20 rings
6 13 15 16 21 22 23 rings
6 18 19 24 25 26 27 rings
6 29 30 31 32 33 34 rings
6 5 6 7 8 9 10 rings

> <PUBCHEM_HEAVY_ATOM_COUNT>
34

> <PUBCHEM_ATOM_DEF_STEREO_COUNT>
0

> <PUBCHEM_ATOM_UDEF_STEREO_COUNT>
0

> <PUBCHEM_BOND_DEF_STEREO_COUNT>
0

> <PUBCHEM_BOND_UDEF_STEREO_COUNT>
0

> <PUBCHEM_ISOTOPIC_ATOM_COUNT>
0

> <PUBCHEM_COMPONENT_COUNT>
1

> <PUBCHEM_CACTVS_TAUTO_COUNT>
1

> <PUBCHEM_CONFORMER_ID>
0365015F00000002

> <PUBCHEM_MMFF94_ENERGY>
104.9983

> <PUBCHEM_FEATURE_SELFOVERLAP>
50.787

> <PUBCHEM_SHAPE_FINGERPRINT>
10 15 18412823565116027362
10165383 225 17775286066601470258
10369192 42 16845292718085757669
10580692 12 18409167689602713506
11135926 11 18272643559036715647
11211813 128 18344149198189779791
11315181 36 12757155653534273317
11408170 108 15719388387168044619
11408170 132 9655569726192643338
11410812 94 17095793345099997637
11456790 92 17846781823214668712
12089408 11 17603305934543277540
12144603 126 12463568478997780452
12539745 222 17167858665372659887
13383668 362 18195240251091530904
13560911 43 18411133628571600568
14150022 121 18059863831336250017
15461852 350 16660359272961243375
15728490 51 18409731772678525143
16087824 20 9727367818406786387
18335252 98 18343025484326279991
18608769 82 18273492390154204350
19315958 150 17345489102852575831
19611394 137 18262243321372186705
20105231 36 18335986373312162458
21130935 74 18268149747671408330
21927370 108 18260265257088839485
24771293 8 18343310249822698881
249057 3 10663816386408398122
25019877 29 17846502534660862839
2747138 104 18411710876460138789
3383291 50 18187370956461860363
59682541 35 18272369780224017578
6081469 158 16370721543664441892
6204607 403 17489037061990911089
6523845 18 17561075913001697346
6691757 9 17240495697210754401
9663363 56 18408603666007441619
9953998 17 17775567550901254087

> <PUBCHEM_SHAPE_MULTIPOLES>
666.26
31.65
2.65
1.33
27.48
1.8
0.24
-13.35
14.9
-5.05
-0.72
1.06
-0.33
1.31

> <PUBCHEM_SHAPE_SELFOVERLAP>
1457.015

> <PUBCHEM_SHAPE_VOLUME>
358.6

> <PUBCHEM_COORDINATE_TYPE>
2
5
10

$$$$