72343
  -OEChem-03242010103D

 92 98  0     1  0  0  0  0  0999 V2000
    0.3595   -0.0968   -0.1232 O   0  0  0  0  0  0  0  0  0  0  0  0
    5.6497   -1.4195   -1.0127 O   0  0  0  0  0  0  0  0  0  0  0  0
    1.1098   -1.4351   -2.4312 O   0  0  0  0  0  0  0  0  0  0  0  0
    3.7376   -2.0783   -2.8650 O   0  0  0  0  0  0  0  0  0  0  0  0
    0.9940   -2.4117    1.5516 O   0  0  0  0  0  0  0  0  0  0  0  0
   -2.1045    3.9948    0.6961 O   0  0  0  0  0  0  0  0  0  0  0  0
   -1.4207    4.6372   -1.9127 O   0  0  0  0  0  0  0  0  0  0  0  0
    3.1836    0.5780    3.0151 N   0  0  2  0  0  0  0  0  0  0  0  0
   -4.8482   -3.1016   -0.9090 N   0  0  1  0  0  0  0  0  0  0  0  0
    2.3180    0.8268    1.8334 C   0  0  2  0  0  0  0  0  0  0  0  0
    2.6506   -0.0169    0.6056 C   0  0  0  0  0  0  0  0  0  0  0  0
   -4.2056   -1.7847   -0.6798 C   0  0  2  0  0  0  0  0  0  0  0  0
    3.9860   -0.4004    0.3842 C   0  0  0  0  0  0  0  0  0  0  0  0
    4.3241   -0.3187    2.8103 C   0  0  0  0  0  0  0  0  0  0  0  0
    4.9954   -0.0972    1.4545 C   0  0  0  0  0  0  0  0  0  0  0  0
    2.4682    2.3437    1.5332 C   0  0  0  0  0  0  0  0  0  0  0  0
   -2.7780   -1.9835   -0.1721 C   0  0  0  0  0  0  0  0  0  0  0  0
   -4.8554   -3.9253    0.3040 C   0  0  0  0  0  0  0  0  0  0  0  0
   -2.4476   -3.1142    0.5923 C   0  0  0  0  0  0  0  0  0  0  0  0
    1.6813   -0.4211   -0.3265 C   0  0  0  0  0  0  0  0  0  0  0  0
   -3.4296   -4.2439    0.7654 C   0  0  0  0  0  0  0  0  0  0  0  0
   -5.0262   -0.8299    0.2510 C   0  0  0  0  0  0  0  0  0  0  0  0
    4.3498   -1.0811   -0.7835 C   0  0  0  0  0  0  0  0  0  0  0  0
    2.4131    0.1890    4.1937 C   0  0  0  0  0  0  0  0  0  0  0  0
   -1.7856   -1.0227   -0.4330 C   0  0  0  0  0  0  0  0  0  0  0  0
    1.4232    2.9261    0.6117 C   0  0  0  0  0  0  0  0  0  0  0  0
    2.0454   -1.1013   -1.4950 C   0  0  0  0  0  0  0  0  0  0  0  0
   -0.5061   -1.1458    0.1111 C   0  0  0  0  0  0  0  0  0  0  0  0
    3.3806   -1.4224   -1.7238 C   0  0  0  0  0  0  0  0  0  0  0  0
   -1.1561   -3.2351    1.1279 C   0  0  0  0  0  0  0  0  0  0  0  0
   -6.1821   -3.0056   -1.4933 C   0  0  0  0  0  0  0  0  0  0  0  0
   -0.1949   -2.2465    0.9093 C   0  0  0  0  0  0  0  0  0  0  0  0
   -4.4068    0.5385    0.4281 C   0  0  0  0  0  0  0  0  0  0  0  0
    0.1312    3.1910    1.0857 C   0  0  0  0  0  0  0  0  0  0  0  0
    1.7350    3.2282   -0.7212 C   0  0  0  0  0  0  0  0  0  0  0  0
   -3.7608    0.8663    1.6303 C   0  0  0  0  0  0  0  0  0  0  0  0
   -4.3841    1.4515   -0.6360 C   0  0  0  0  0  0  0  0  0  0  0  0
   -0.8309    3.7360    0.2301 C   0  0  0  0  0  0  0  0  0  0  0  0
    0.7760    3.7960   -1.5630 C   0  0  0  0  0  0  0  0  0  0  0  0
   -0.5068    4.0603   -1.0873 C   0  0  0  0  0  0  0  0  0  0  0  0
   -2.9278    2.8915    0.6328 C   0  0  0  0  0  0  0  0  0  0  0  0
   -3.0268    2.0450    1.7367 C   0  0  0  0  0  0  0  0  0  0  0  0
   -3.6457    2.6294   -0.5350 C   0  0  0  0  0  0  0  0  0  0  0  0
    6.4502   -0.4701   -1.7106 C   0  0  0  0  0  0  0  0  0  0  0  0
    0.8576   -0.4827   -3.4614 C   0  0  0  0  0  0  0  0  0  0  0  0
    3.7310   -3.5030   -2.8201 C   0  0  0  0  0  0  0  0  0  0  0  0
    1.1504   -3.5968    2.3292 C   0  0  0  0  0  0  0  0  0  0  0  0
   -1.4710    6.0624   -1.9280 C   0  0  0  0  0  0  0  0  0  0  0  0
    1.2753    0.6217    2.1088 H   0  0  0  0  0  0  0  0  0  0  0  0
   -4.1162   -1.3119   -1.6682 H   0  0  0  0  0  0  0  0  0  0  0  0
    4.0064   -1.3682    2.8882 H   0  0  0  0  0  0  0  0  0  0  0  0
    5.0630   -0.1455    3.6018 H   0  0  0  0  0  0  0  0  0  0  0  0
    5.8614   -0.7649    1.3886 H   0  0  0  0  0  0  0  0  0  0  0  0
    5.3577    0.9317    1.3480 H   0  0  0  0  0  0  0  0  0  0  0  0
    3.4671    2.5595    1.1295 H   0  0  0  0  0  0  0  0  0  0  0  0
    2.4094    2.9149    2.4715 H   0  0  0  0  0  0  0  0  0  0  0  0
   -5.3659   -4.8788    0.1165 H   0  0  0  0  0  0  0  0  0  0  0  0
   -5.4113   -3.4386    1.1141 H   0  0  0  0  0  0  0  0  0  0  0  0
   -3.0554   -5.0944    0.1803 H   0  0  0  0  0  0  0  0  0  0  0  0
   -3.4585   -4.5526    1.8172 H   0  0  0  0  0  0  0  0  0  0  0  0
   -5.1630   -1.2798    1.2417 H   0  0  0  0  0  0  0  0  0  0  0  0
   -6.0342   -0.6748   -0.1521 H   0  0  0  0  0  0  0  0  0  0  0  0
    3.0610    0.1171    5.0743 H   0  0  0  0  0  0  0  0  0  0  0  0
    1.9119   -0.7752    4.0534 H   0  0  0  0  0  0  0  0  0  0  0  0
    1.6540    0.9445    4.4255 H   0  0  0  0  0  0  0  0  0  0  0  0
   -2.0119   -0.1595   -1.0537 H   0  0  0  0  0  0  0  0  0  0  0  0
   -0.9884   -4.1391    1.7035 H   0  0  0  0  0  0  0  0  0  0  0  0
   -6.9279   -2.6202   -0.7902 H   0  0  0  0  0  0  0  0  0  0  0  0
   -6.5184   -3.9942   -1.8259 H   0  0  0  0  0  0  0  0  0  0  0  0
   -6.1741   -2.3648   -2.3818 H   0  0  0  0  0  0  0  0  0  0  0  0
   -0.1203    2.9712    2.1201 H   0  0  0  0  0  0  0  0  0  0  0  0
    2.7306    3.0314   -1.1111 H   0  0  0  0  0  0  0  0  0  0  0  0
   -3.7789    0.1778    2.4714 H   0  0  0  0  0  0  0  0  0  0  0  0
   -4.8948    1.2217   -1.5677 H   0  0  0  0  0  0  0  0  0  0  0  0
    1.0405    4.0341   -2.5899 H   0  0  0  0  0  0  0  0  0  0  0  0
   -2.4977    2.2676    2.6585 H   0  0  0  0  0  0  0  0  0  0  0  0
   -3.6102    3.3082   -1.3806 H   0  0  0  0  0  0  0  0  0  0  0  0
    6.0557   -0.2994   -2.7173 H   0  0  0  0  0  0  0  0  0  0  0  0
    7.4628   -0.8735   -1.7971 H   0  0  0  0  0  0  0  0  0  0  0  0
    6.4974    0.4760   -1.1620 H   0  0  0  0  0  0  0  0  0  0  0  0
    0.0811   -0.8857   -4.1172 H   0  0  0  0  0  0  0  0  0  0  0  0
    1.7604   -0.3072   -4.0547 H   0  0  0  0  0  0  0  0  0  0  0  0
    0.4996    0.4601   -3.0353 H   0  0  0  0  0  0  0  0  0  0  0  0
    4.0343   -3.8778   -3.8014 H   0  0  0  0  0  0  0  0  0  0  0  0
    2.7266   -3.8774   -2.5983 H   0  0  0  0  0  0  0  0  0  0  0  0
    4.4411   -3.8687   -2.0716 H   0  0  0  0  0  0  0  0  0  0  0  0
    0.4633   -3.6223    3.1823 H   0  0  0  0  0  0  0  0  0  0  0  0
    2.1604   -3.5620    2.7526 H   0  0  0  0  0  0  0  0  0  0  0  0
    1.1092   -4.5015    1.7126 H   0  0  0  0  0  0  0  0  0  0  0  0
   -0.5172    6.4761   -2.2706 H   0  0  0  0  0  0  0  0  0  0  0  0
   -1.7140    6.4503   -0.9338 H   0  0  0  0  0  0  0  0  0  0  0  0
   -2.2559    6.3697   -2.6244 H   0  0  0  0  0  0  0  0  0  0  0  0
  1 20  1  0  0  0  0
  1 28  1  0  0  0  0
  2 23  1  0  0  0  0
  2 44  1  0  0  0  0
  3 27  1  0  0  0  0
  3 45  1  0  0  0  0
  4 29  1  0  0  0  0
  4 46  1  0  0  0  0
  5 32  1  0  0  0  0
  5 47  1  0  0  0  0
  6 38  1  0  0  0  0
  6 41  1  0  0  0  0
  7 40  1  0  0  0  0
  7 48  1  0  0  0  0
  8 10  1  0  0  0  0
  8 14  1  0  0  0  0
  8 24  1  0  0  0  0
  9 12  1  0  0  0  0
  9 18  1  0  0  0  0
  9 31  1  0  0  0  0
 10 11  1  0  0  0  0
 10 16  1  0  0  0  0
 10 49  1  0  0  0  0
 11 13  2  0  0  0  0
 11 20  1  0  0  0  0
 12 17  1  0  0  0  0
 12 22  1  0  0  0  0
 12 50  1  0  0  0  0
 13 15  1  0  0  0  0
 13 23  1  0  0  0  0
 14 15  1  0  0  0  0
 14 51  1  0  0  0  0
 14 52  1  0  0  0  0
 15 53  1  0  0  0  0
 15 54  1  0  0  0  0
 16 26  1  0  0  0  0
 16 55  1  0  0  0  0
 16 56  1  0  0  0  0
 17 19  1  0  0  0  0
 17 25  2  0  0  0  0
 18 21  1  0  0  0  0
 18 57  1  0  0  0  0
 18 58  1  0  0  0  0
 19 21  1  0  0  0  0
 19 30  2  0  0  0  0
 20 27  2  0  0  0  0
 21 59  1  0  0  0  0
 21 60  1  0  0  0  0
 22 33  1  0  0  0  0
 22 61  1  0  0  0  0
 22 62  1  0  0  0  0
 23 29  2  0  0  0  0
 24 63  1  0  0  0  0
 24 64  1  0  0  0  0
 24 65  1  0  0  0  0
 25 28  1  0  0  0  0
 25 66  1  0  0  0  0
 26 34  2  0  0  0  0
 26 35  1  0  0  0  0
 27 29  1  0  0  0  0
 28 32  2  0  0  0  0
 30 32  1  0  0  0  0
 30 67  1  0  0  0  0
 31 68  1  0  0  0  0
 31 69  1  0  0  0  0
 31 70  1  0  0  0  0
 33 36  2  0  0  0  0
 33 37  1  0  0  0  0
 34 38  1  0  0  0  0
 34 71  1  0  0  0  0
 35 39  2  0  0  0  0
 35 72  1  0  0  0  0
 36 42  1  0  0  0  0
 36 73  1  0  0  0  0
 37 43  2  0  0  0  0
 37 74  1  0  0  0  0
 38 40  2  0  0  0  0
 39 40  1  0  0  0  0
 39 75  1  0  0  0  0
 41 42  2  0  0  0  0
 41 43  1  0  0  0  0
 42 76  1  0  0  0  0
 43 77  1  0  0  0  0
 44 78  1  0  0  0  0
 44 79  1  0  0  0  0
 44 80  1  0  0  0  0
 45 81  1  0  0  0  0
 45 82  1  0  0  0  0
 45 83  1  0  0  0  0
 46 84  1  0  0  0  0
 46 85  1  0  0  0  0
 46 86  1  0  0  0  0
 47 87  1  0  0  0  0
 47 88  1  0  0  0  0
 47 89  1  0  0  0  0
 48 90  1  0  0  0  0
 48 91  1  0  0  0  0
 48 92  1  0  0  0  0
M  END
> <PUBCHEM_COMPOUND_CID>
72343

> <PUBCHEM_CONFORMER_RMSD>
1

> <PUBCHEM_CONFORMER_DIVERSEORDER>
2
1
3

> <PUBCHEM_MMFF94_PARTIAL_CHARGES>
57
1 -0.17
10 0.41
11 -0.14
12 0.41
13 -0.14
14 0.27
15 0.14
16 0.14
17 -0.14
18 0.27
19 -0.14
2 -0.36
20 0.08
21 0.14
22 0.14
23 0.08
24 0.27
25 -0.15
26 -0.14
27 0.08
28 0.08
29 0.08
3 -0.36
30 -0.15
31 0.27
32 0.08
33 -0.14
34 -0.15
35 -0.15
36 -0.15
37 -0.15
38 0.08
39 -0.15
4 -0.36
40 0.08
41 0.08
42 -0.15
43 -0.15
44 0.28
45 0.28
46 0.28
47 0.28
48 0.28
5 -0.36
6 -0.17
66 0.15
67 0.15
7 -0.36
71 0.15
72 0.15
73 0.15
74 0.15
75 0.15
76 0.15
77 0.15
8 -0.81
9 -0.81

> <PUBCHEM_EFFECTIVE_ROTOR_COUNT>
7

> <PUBCHEM_PHARMACOPHORE_FEATURES>
15
1 1 acceptor
1 2 acceptor
1 3 acceptor
1 4 acceptor
1 5 acceptor
1 6 acceptor
1 7 acceptor
1 8 cation
1 9 cation
6 11 13 20 23 27 29 rings
6 17 19 25 28 30 32 rings
6 26 34 35 38 39 40 rings
6 33 36 37 41 42 43 rings
6 8 10 11 13 14 15 rings
6 9 12 17 18 19 21 rings

> <PUBCHEM_HEAVY_ATOM_COUNT>
48

> <PUBCHEM_ATOM_DEF_STEREO_COUNT>
2

> <PUBCHEM_ATOM_UDEF_STEREO_COUNT>
0

> <PUBCHEM_BOND_DEF_STEREO_COUNT>
0

> <PUBCHEM_BOND_UDEF_STEREO_COUNT>
0

> <PUBCHEM_ISOTOPIC_ATOM_COUNT>
0

> <PUBCHEM_COMPONENT_COUNT>
1

> <PUBCHEM_CACTVS_TAUTO_COUNT>
1

> <PUBCHEM_CONFORMER_ID>
00011A9700000002

> <PUBCHEM_MMFF94_ENERGY>
224.8712

> <PUBCHEM_FEATURE_SELFOVERLAP>
76.196

> <PUBCHEM_SHAPE_FINGERPRINT>
11421498 54 17605007926460122776
11434127 23 17843679967937686604
11513181 2 17844808281309779036
11828532 37 18045780354584712795
12107698 1 18272370927223430967
12128747 34 18199755734793286822
13636023 20 17842873106970328828
140371 6 17978236289557281681
14117953 113 18409442558645637413
15975801 100 18117846508059061424
19311894 1 18197793102384825695
19315092 285 16883248014016241723
20764821 26 18263942066921457281
21860390 5 18051407667362484374
22121540 332 18128246995227163320
23559900 14 18123191470110027651
3052486 1 18334854970539013248
437795 70 18342188742865806750
4394409 98 17897980514143609661
469060 322 18187919530706177617
508706 21 18270675372966567313

> <PUBCHEM_SHAPE_MULTIPOLES>
936.77
10.95
7.02
3.09
1.17
6.71
-0.46
-8.92
1.79
6.2
2.44
-4.15
-0.74
1.49

> <PUBCHEM_SHAPE_SELFOVERLAP>
2057.161

> <PUBCHEM_SHAPE_VOLUME>
506.2

> <PUBCHEM_COORDINATE_TYPE>
2
5
10

$$$$