137636574
  -OEChem-03242010103D

 71 75  0     1  0  0  0  0  0999 V2000
    1.1541    4.9220    0.1016 O   0  0  0  0  0  0  0  0  0  0  0  0
    2.8627    4.1285    2.1432 O   0  0  0  0  0  0  0  0  0  0  0  0
   -1.3043   -3.3655    1.1077 O   0  0  0  0  0  0  0  0  0  0  0  0
    0.2722   -0.0316    0.3524 O   0  0  0  0  0  0  0  0  0  0  0  0
   -6.9262    2.1541   -0.8524 O   0  5  0  0  0  0  0  0  0  0  0  0
   -6.7876    0.6271    0.7186 O   0  0  0  0  0  0  0  0  0  0  0  0
    2.5775   -0.5511   -2.2347 N   0  0  1  0  0  0  0  0  0  0  0  0
    1.2049   -3.1352   -2.4232 N   0  0  0  0  0  0  0  0  0  0  0  0
   -0.0227   -2.8062   -2.8567 N   0  0  0  0  0  0  0  0  0  0  0  0
   -0.8902   -3.2305   -1.9443 N   0  0  0  0  0  0  0  0  0  0  0  0
   -1.9090   -0.4476    1.1108 N   0  0  0  0  0  0  0  0  0  0  0  0
   -6.2535    1.3719   -0.1382 N   0  3  0  0  0  0  0  0  0  0  0  0
    3.9314   -0.5988   -1.6692 C   0  0  0  0  0  0  0  0  0  0  0  0
    2.1575    0.8474   -2.4326 C   0  0  0  0  0  0  0  0  0  0  0  0
    3.9260   -0.0092   -0.2551 C   0  0  0  0  0  0  0  0  0  0  0  0
    2.3273    1.7032   -1.1982 C   0  0  0  0  0  0  0  0  0  0  0  0
    3.2092    1.3135   -0.1754 C   0  0  0  0  0  0  0  0  0  0  0  0
    2.5166   -1.2845   -3.4985 C   0  0  0  0  0  0  0  0  0  0  0  0
    2.4276   -2.7871   -3.2343 C   0  0  0  0  0  0  0  0  0  0  0  0
    1.6509    2.9266   -1.0976 C   0  0  0  0  0  0  0  0  0  0  0  0
    3.3730    2.1336    0.9484 C   0  0  0  0  0  0  0  0  0  0  0  0
    1.8279    3.7406    0.0209 C   0  0  0  0  0  0  0  0  0  0  0  0
    2.6861    3.3435    1.0437 C   0  0  0  0  0  0  0  0  0  0  0  0
    1.1582   -3.7777   -1.2244 C   0  0  0  0  0  0  0  0  0  0  0  0
   -0.1829   -3.8278   -0.9381 C   0  0  0  0  0  0  0  0  0  0  0  0
   -0.8592   -4.4040    0.2311 C   0  0  0  0  0  0  0  0  0  0  0  0
    0.2956    5.2539   -0.9880 C   0  0  0  0  0  0  0  0  0  0  0  0
    3.7584    3.6491    3.1443 C   0  0  0  0  0  0  0  0  0  0  0  0
   -0.4032   -2.9233    2.0353 C   0  0  0  0  0  0  0  0  0  0  0  0
    0.0035   -1.5893    2.0592 C   0  0  0  0  0  0  0  0  0  0  0  0
    0.1090   -3.8253    2.9678 C   0  0  0  0  0  0  0  0  0  0  0  0
    0.9223   -1.1573    3.0155 C   0  0  0  0  0  0  0  0  0  0  0  0
   -0.5200   -0.6309    1.0957 C   0  0  0  0  0  0  0  0  0  0  0  0
    1.0279   -3.3933    3.9243 C   0  0  0  0  0  0  0  0  0  0  0  0
    1.4345   -2.0592    3.9482 C   0  0  0  0  0  0  0  0  0  0  0  0
   -2.6904    0.4259    0.3153 C   0  0  0  0  0  0  0  0  0  0  0  0
   -4.0751    0.4678    0.4784 C   0  0  0  0  0  0  0  0  0  0  0  0
   -2.0746    1.2450   -0.6311 C   0  0  0  0  0  0  0  0  0  0  0  0
   -4.8439    1.3285   -0.3049 C   0  0  0  0  0  0  0  0  0  0  0  0
   -2.8435    2.1057   -1.4145 C   0  0  0  0  0  0  0  0  0  0  0  0
   -4.2282    2.1474   -1.2513 C   0  0  0  0  0  0  0  0  0  0  0  0
    4.6371   -0.0453   -2.3038 H   0  0  0  0  0  0  0  0  0  0  0  0
    4.3074   -1.6245   -1.5936 H   0  0  0  0  0  0  0  0  0  0  0  0
    1.0962    0.8537   -2.7118 H   0  0  0  0  0  0  0  0  0  0  0  0
    2.7278    1.3126   -3.2478 H   0  0  0  0  0  0  0  0  0  0  0  0
    4.9628    0.1086    0.0815 H   0  0  0  0  0  0  0  0  0  0  0  0
    3.4282   -0.7078    0.4298 H   0  0  0  0  0  0  0  0  0  0  0  0
    3.3785   -1.0622   -4.1401 H   0  0  0  0  0  0  0  0  0  0  0  0
    1.6239   -0.9873   -4.0646 H   0  0  0  0  0  0  0  0  0  0  0  0
    3.2859   -3.1960   -2.6936 H   0  0  0  0  0  0  0  0  0  0  0  0
    2.3076   -3.3438   -4.1705 H   0  0  0  0  0  0  0  0  0  0  0  0
    1.0003    3.1850   -1.9267 H   0  0  0  0  0  0  0  0  0  0  0  0
    4.0493    1.7688    1.7147 H   0  0  0  0  0  0  0  0  0  0  0  0
    2.0397   -4.1234   -0.7033 H   0  0  0  0  0  0  0  0  0  0  0  0
   -1.7543   -4.9433   -0.0991 H   0  0  0  0  0  0  0  0  0  0  0  0
   -0.2266   -5.1430    0.7355 H   0  0  0  0  0  0  0  0  0  0  0  0
   -0.1579    6.2234   -0.7565 H   0  0  0  0  0  0  0  0  0  0  0  0
   -0.5254    4.5361   -1.0881 H   0  0  0  0  0  0  0  0  0  0  0  0
    0.8563    5.3808   -1.9203 H   0  0  0  0  0  0  0  0  0  0  0  0
    3.4003    2.7164    3.5933 H   0  0  0  0  0  0  0  0  0  0  0  0
    3.7786    4.3979    3.9431 H   0  0  0  0  0  0  0  0  0  0  0  0
    4.7820    3.5640    2.7636 H   0  0  0  0  0  0  0  0  0  0  0  0
   -0.2117   -4.8633    2.9806 H   0  0  0  0  0  0  0  0  0  0  0  0
    1.2471   -0.1202    3.0461 H   0  0  0  0  0  0  0  0  0  0  0  0
    1.4229   -4.0943    4.6538 H   0  0  0  0  0  0  0  0  0  0  0  0
    2.1490   -1.7225    4.6936 H   0  0  0  0  0  0  0  0  0  0  0  0
   -2.4392   -1.0022    1.7800 H   0  0  0  0  0  0  0  0  0  0  0  0
   -4.5336   -0.1799    1.2226 H   0  0  0  0  0  0  0  0  0  0  0  0
   -1.0111    1.2667   -0.8174 H   0  0  0  0  0  0  0  0  0  0  0  0
   -2.3644    2.7431   -2.1523 H   0  0  0  0  0  0  0  0  0  0  0  0
   -4.7950    2.8302   -1.8791 H   0  0  0  0  0  0  0  0  0  0  0  0
  1 22  1  0  0  0  0
  1 27  1  0  0  0  0
  2 23  1  0  0  0  0
  2 28  1  0  0  0  0
  3 26  1  0  0  0  0
  3 29  1  0  0  0  0
  4 33  2  0  0  0  0
  5 12  1  0  0  0  0
  6 12  2  0  0  0  0
  7 13  1  0  0  0  0
  7 14  1  0  0  0  0
  7 18  1  0  0  0  0
  8  9  1  0  0  0  0
  8 19  1  0  0  0  0
  8 24  1  0  0  0  0
  9 10  2  0  0  0  0
 10 25  1  0  0  0  0
 11 33  1  0  0  0  0
 11 36  1  0  0  0  0
 11 67  1  0  0  0  0
 12 39  1  0  0  0  0
 13 15  1  0  0  0  0
 13 42  1  0  0  0  0
 13 43  1  0  0  0  0
 14 16  1  0  0  0  0
 14 44  1  0  0  0  0
 14 45  1  0  0  0  0
 15 17  1  0  0  0  0
 15 46  1  0  0  0  0
 15 47  1  0  0  0  0
 16 17  1  0  0  0  0
 16 20  2  0  0  0  0
 17 21  2  0  0  0  0
 18 19  1  0  0  0  0
 18 48  1  0  0  0  0
 18 49  1  0  0  0  0
 19 50  1  0  0  0  0
 19 51  1  0  0  0  0
 20 22  1  0  0  0  0
 20 52  1  0  0  0  0
 21 23  1  0  0  0  0
 21 53  1  0  0  0  0
 22 23  2  0  0  0  0
 24 25  2  0  0  0  0
 24 54  1  0  0  0  0
 25 26  1  0  0  0  0
 26 55  1  0  0  0  0
 26 56  1  0  0  0  0
 27 57  1  0  0  0  0
 27 58  1  0  0  0  0
 27 59  1  0  0  0  0
 28 60  1  0  0  0  0
 28 61  1  0  0  0  0
 28 62  1  0  0  0  0
 29 30  1  0  0  0  0
 29 31  2  0  0  0  0
 30 32  2  0  0  0  0
 30 33  1  0  0  0  0
 31 34  1  0  0  0  0
 31 63  1  0  0  0  0
 32 35  1  0  0  0  0
 32 64  1  0  0  0  0
 34 35  2  0  0  0  0
 34 65  1  0  0  0  0
 35 66  1  0  0  0  0
 36 37  2  0  0  0  0
 36 38  1  0  0  0  0
 37 39  1  0  0  0  0
 37 68  1  0  0  0  0
 38 40  2  0  0  0  0
 38 69  1  0  0  0  0
 39 41  2  0  0  0  0
 40 41  1  0  0  0  0
 40 70  1  0  0  0  0
 41 71  1  0  0  0  0
M  CHG  2   5  -1  12   1
M  END
> <PUBCHEM_COMPOUND_CID>
137636574

> <PUBCHEM_CONFORMER_RMSD>
1.6

> <PUBCHEM_CONFORMER_DIVERSEORDER>
14
108
94
103
92
57
91
26
2
141
59
87
147
8
116
43
51
120
99
138
69
55
131
11
158
143
37
151
101
136
159
140
109
78
61
63
49
145
7
95
71
3
86
154
85
1
123
150
20
146
106
34
30
21
111
72
18
97
122
5
105
102
142
153
149
76
83
137
23
112
128
15
96
32
67
82
62
129
28
9
39
139
29
113
107
79
27
148
42
40
16
118
19
100
84
81
157
80
119
38
114
75
35
90
64
133
152
52
45
60
10
124
4
33
58
47
41
46
77
17
93
31
110
130
66
104
48
53
65
156
12
13
121
127
144
155
25
6
22
54
98
134
44
36
132
135
74
68
89
125
88
126
56
70
115
24
50
117
73

> <PUBCHEM_MMFF94_PARTIAL_CHARGES>
53
1 -0.36
10 -0.23
11 -0.55
12 0.91
13 0.27
14 0.41
15 0.14
16 -0.14
17 -0.14
18 0.27
19 0.26
2 -0.36
20 -0.15
21 -0.15
22 0.08
23 0.08
24 -0.3
25 0.05
26 0.46
27 0.28
28 0.28
29 0.08
3 -0.36
30 0.09
31 -0.15
32 -0.15
33 0.54
34 -0.15
35 -0.15
36 0.12
37 -0.15
38 -0.15
39 0.13
4 -0.57
40 -0.15
41 -0.15
5 -0.52
52 0.15
53 0.15
54 0.15
6 -0.52
63 0.15
64 0.15
65 0.15
66 0.15
67 0.37
68 0.15
69 0.15
7 -0.81
70 0.15
71 0.15
8 0.31
9 -0.42

> <PUBCHEM_EFFECTIVE_ROTOR_COUNT>
12.8

> <PUBCHEM_PHARMACOPHORE_FEATURES>
14
1 1 acceptor
1 11 donor
1 2 acceptor
1 3 acceptor
1 4 acceptor
1 5 acceptor
1 5 anion
1 6 acceptor
1 7 cation
5 8 9 10 24 25 rings
6 16 17 20 21 22 23 rings
6 29 30 31 32 34 35 rings
6 36 37 38 39 40 41 rings
6 7 13 14 15 16 17 rings

> <PUBCHEM_HEAVY_ATOM_COUNT>
41

> <PUBCHEM_ATOM_DEF_STEREO_COUNT>
0

> <PUBCHEM_ATOM_UDEF_STEREO_COUNT>
0

> <PUBCHEM_BOND_DEF_STEREO_COUNT>
0

> <PUBCHEM_BOND_UDEF_STEREO_COUNT>
0

> <PUBCHEM_ISOTOPIC_ATOM_COUNT>
0

> <PUBCHEM_COMPONENT_COUNT>
1

> <PUBCHEM_CACTVS_TAUTO_COUNT>
-1

> <PUBCHEM_CONFORMER_ID>
08342ADE0000000E

> <PUBCHEM_MMFF94_ENERGY>
135.1485

> <PUBCHEM_FEATURE_SELFOVERLAP>
71.158

> <PUBCHEM_SHAPE_FINGERPRINT>
10816530 23 17772178975748935992
11582403 64 18338788030868541722
12147406 95 17977084779177548701
12156800 1 17412417581466563654
12788726 201 17248091351063150033
13636023 20 17771911519418378919
14114207 22 16734389288508667410
14747282 125 18265031601229292330
15219462 58 17320712990772540064
15484559 13 18337099108331339777
17974551 9 18187646964050762498
20600515 1 16601226163134975885
21857420 4 17111828385443840333
469060 322 16541023014363845902
50150288 127 17261539404625622106
86090 222 18190202151668707557

> <PUBCHEM_SHAPE_MULTIPOLES>
778.66
8.53
7.55
4.17
17.04
0.76
-1.31
10.4
0.94
-2.4
-1.64
-4.34
-4.55
3.14

> <PUBCHEM_SHAPE_SELFOVERLAP>
1686.495

> <PUBCHEM_SHAPE_VOLUME>
425.9

> <PUBCHEM_COORDINATE_TYPE>
2
5
10

$$$$