137655403
  -OEChem-03242010103D

 72 76  0     1  0  0  0  0  0999 V2000
    6.2241    1.5447   -2.3981 O   0  0  0  0  0  0  0  0  0  0  0  0
    7.9427    0.6855   -0.3919 O   0  0  0  0  0  0  0  0  0  0  0  0
   -5.2700   -1.2591    0.1081 O   0  0  0  0  0  0  0  0  0  0  0  0
   -4.0081    0.6138    2.0727 O   0  0  0  0  0  0  0  0  0  0  0  0
    2.1787   -1.9629    0.5644 N   0  0  2  0  0  0  0  0  0  0  0  0
   -1.3364   -2.7132   -0.6516 N   0  0  0  0  0  0  0  0  0  0  0  0
   -1.8250   -3.8856   -0.2160 N   0  0  0  0  0  0  0  0  0  0  0  0
   -3.1500   -3.8057   -0.2712 N   0  0  0  0  0  0  0  0  0  0  0  0
   -2.7696    1.6749    0.3856 N   0  0  0  0  0  0  0  0  0  0  0  0
    2.7656   -1.7620    1.8949 C   0  0  0  0  0  0  0  0  0  0  0  0
    2.4682   -0.8051   -0.3000 C   0  0  0  0  0  0  0  0  0  0  0  0
    4.2942   -1.7474    1.7929 C   0  0  0  0  0  0  0  0  0  0  0  0
    3.9337   -0.4363   -0.3350 C   0  0  0  0  0  0  0  0  0  0  0  0
    4.7987   -0.8508    0.6923 C   0  0  0  0  0  0  0  0  0  0  0  0
    0.7353   -2.1777    0.6610 C   0  0  0  0  0  0  0  0  0  0  0  0
    0.1513   -2.4756   -0.7194 C   0  0  0  0  0  0  0  0  0  0  0  0
    4.4245    0.3792   -1.3637 C   0  0  0  0  0  0  0  0  0  0  0  0
    6.1478   -0.4754    0.6561 C   0  0  0  0  0  0  0  0  0  0  0  0
    5.7673    0.7558   -1.3858 C   0  0  0  0  0  0  0  0  0  0  0  0
    6.6284    0.3271   -0.3782 C   0  0  0  0  0  0  0  0  0  0  0  0
   -2.3320   -1.8518   -0.9969 C   0  0  0  0  0  0  0  0  0  0  0  0
   -3.4767   -2.5664   -0.7473 C   0  0  0  0  0  0  0  0  0  0  0  0
   -4.8773   -2.1638   -0.9275 C   0  0  0  0  0  0  0  0  0  0  0  0
    5.2775    1.9395   -3.3893 C   0  0  0  0  0  0  0  0  0  0  0  0
    8.7565    0.2047    0.6763 C   0  0  0  0  0  0  0  0  0  0  0  0
   -5.7461   -0.0427   -0.2939 C   0  0  0  0  0  0  0  0  0  0  0  0
   -5.1119    1.1378    0.0932 C   0  0  0  0  0  0  0  0  0  0  0  0
   -6.8805    0.0083   -1.1039 C   0  0  0  0  0  0  0  0  0  0  0  0
   -3.9256    1.1069    0.9372 C   0  0  0  0  0  0  0  0  0  0  0  0
   -5.6121    2.3692   -0.3297 C   0  0  0  0  0  0  0  0  0  0  0  0
   -1.4879    1.8092    0.9738 C   0  0  0  0  0  0  0  0  0  0  0  0
   -7.3808    1.2398   -1.5270 C   0  0  0  0  0  0  0  0  0  0  0  0
   -6.7465    2.4203   -1.1399 C   0  0  0  0  0  0  0  0  0  0  0  0
   -0.4478    2.4354    0.2871 C   0  0  0  0  0  0  0  0  0  0  0  0
   -1.2730    1.3054    2.2566 C   0  0  0  0  0  0  0  0  0  0  0  0
    0.8073    2.5578    0.8833 C   0  0  0  0  0  0  0  0  0  0  0  0
   -0.6492    2.9842   -1.0881 C   0  0  0  0  0  0  0  0  0  0  0  0
   -0.0179    1.4279    2.8529 C   0  0  0  0  0  0  0  0  0  0  0  0
    1.0223    2.0541    2.1662 C   0  0  0  0  0  0  0  0  0  0  0  0
    2.4788   -2.5762    2.5716 H   0  0  0  0  0  0  0  0  0  0  0  0
    2.4066   -0.8264    2.3435 H   0  0  0  0  0  0  0  0  0  0  0  0
    1.8995    0.0760    0.0127 H   0  0  0  0  0  0  0  0  0  0  0  0
    2.2004   -1.0440   -1.3343 H   0  0  0  0  0  0  0  0  0  0  0  0
    4.6573   -2.7644    1.5968 H   0  0  0  0  0  0  0  0  0  0  0  0
    4.7078   -1.4241    2.7556 H   0  0  0  0  0  0  0  0  0  0  0  0
    0.2280   -1.3126    1.1064 H   0  0  0  0  0  0  0  0  0  0  0  0
    0.5326   -3.0335    1.3175 H   0  0  0  0  0  0  0  0  0  0  0  0
    0.5716   -3.3833   -1.1670 H   0  0  0  0  0  0  0  0  0  0  0  0
    0.2452   -1.6465   -1.4268 H   0  0  0  0  0  0  0  0  0  0  0  0
    3.7060    0.6888   -2.1158 H   0  0  0  0  0  0  0  0  0  0  0  0
    6.7707   -0.8438    1.4648 H   0  0  0  0  0  0  0  0  0  0  0  0
   -2.1483   -0.8555   -1.3730 H   0  0  0  0  0  0  0  0  0  0  0  0
   -5.0010   -1.7314   -1.9291 H   0  0  0  0  0  0  0  0  0  0  0  0
   -5.5362   -3.0373   -0.8682 H   0  0  0  0  0  0  0  0  0  0  0  0
    5.8127    2.5593   -4.1164 H   0  0  0  0  0  0  0  0  0  0  0  0
    4.4840    2.5637   -2.9642 H   0  0  0  0  0  0  0  0  0  0  0  0
    4.8830    1.0773   -3.9377 H   0  0  0  0  0  0  0  0  0  0  0  0
    9.7688    0.5861    0.5064 H   0  0  0  0  0  0  0  0  0  0  0  0
    8.8248   -0.8886    0.6715 H   0  0  0  0  0  0  0  0  0  0  0  0
    8.4275    0.5989    1.6439 H   0  0  0  0  0  0  0  0  0  0  0  0
   -7.3903   -0.9028   -1.4057 H   0  0  0  0  0  0  0  0  0  0  0  0
   -5.1327    3.2988   -0.0331 H   0  0  0  0  0  0  0  0  0  0  0  0
   -2.8594    2.0446   -0.5571 H   0  0  0  0  0  0  0  0  0  0  0  0
   -8.2654    1.2797   -2.1558 H   0  0  0  0  0  0  0  0  0  0  0  0
   -7.1369    3.3792   -1.4680 H   0  0  0  0  0  0  0  0  0  0  0  0
   -2.0190    0.8009    2.8525 H   0  0  0  0  0  0  0  0  0  0  0  0
    1.6300    3.0401    0.3619 H   0  0  0  0  0  0  0  0  0  0  0  0
    0.2644    3.4465   -1.4783 H   0  0  0  0  0  0  0  0  0  0  0  0
   -0.9283    2.1854   -1.7834 H   0  0  0  0  0  0  0  0  0  0  0  0
   -1.4255    3.7564   -1.0854 H   0  0  0  0  0  0  0  0  0  0  0  0
    0.1523    1.0325    3.8501 H   0  0  0  0  0  0  0  0  0  0  0  0
    2.0006    2.1459    2.6288 H   0  0  0  0  0  0  0  0  0  0  0  0
  1 19  1  0  0  0  0
  1 24  1  0  0  0  0
  2 20  1  0  0  0  0
  2 25  1  0  0  0  0
  3 23  1  0  0  0  0
  3 26  1  0  0  0  0
  4 29  2  0  0  0  0
  5 10  1  0  0  0  0
  5 11  1  0  0  0  0
  5 15  1  0  0  0  0
  6  7  1  0  0  0  0
  6 16  1  0  0  0  0
  6 21  1  0  0  0  0
  7  8  2  0  0  0  0
  8 22  1  0  0  0  0
  9 29  1  0  0  0  0
  9 31  1  0  0  0  0
  9 63  1  0  0  0  0
 10 12  1  0  0  0  0
 10 40  1  0  0  0  0
 10 41  1  0  0  0  0
 11 13  1  0  0  0  0
 11 42  1  0  0  0  0
 11 43  1  0  0  0  0
 12 14  1  0  0  0  0
 12 44  1  0  0  0  0
 12 45  1  0  0  0  0
 13 14  1  0  0  0  0
 13 17  2  0  0  0  0
 14 18  2  0  0  0  0
 15 16  1  0  0  0  0
 15 46  1  0  0  0  0
 15 47  1  0  0  0  0
 16 48  1  0  0  0  0
 16 49  1  0  0  0  0
 17 19  1  0  0  0  0
 17 50  1  0  0  0  0
 18 20  1  0  0  0  0
 18 51  1  0  0  0  0
 19 20  2  0  0  0  0
 21 22  2  0  0  0  0
 21 52  1  0  0  0  0
 22 23  1  0  0  0  0
 23 53  1  0  0  0  0
 23 54  1  0  0  0  0
 24 55  1  0  0  0  0
 24 56  1  0  0  0  0
 24 57  1  0  0  0  0
 25 58  1  0  0  0  0
 25 59  1  0  0  0  0
 25 60  1  0  0  0  0
 26 27  1  0  0  0  0
 26 28  2  0  0  0  0
 27 29  1  0  0  0  0
 27 30  2  0  0  0  0
 28 32  1  0  0  0  0
 28 61  1  0  0  0  0
 30 33  1  0  0  0  0
 30 62  1  0  0  0  0
 31 34  1  0  0  0  0
 31 35  2  0  0  0  0
 32 33  2  0  0  0  0
 32 64  1  0  0  0  0
 33 65  1  0  0  0  0
 34 36  2  0  0  0  0
 34 37  1  0  0  0  0
 35 38  1  0  0  0  0
 35 66  1  0  0  0  0
 36 39  1  0  0  0  0
 36 67  1  0  0  0  0
 37 68  1  0  0  0  0
 37 69  1  0  0  0  0
 37 70  1  0  0  0  0
 38 39  2  0  0  0  0
 38 71  1  0  0  0  0
 39 72  1  0  0  0  0
M  END
> <PUBCHEM_COMPOUND_CID>
137655403

> <PUBCHEM_CONFORMER_RMSD>
1.4

> <PUBCHEM_CONFORMER_DIVERSEORDER>
22
208
19
143
211
200
120
220
67
113
187
35
219
115
175
93
11
33
190
105
210
83
59
79
64
122
183
224
2
77
213
198
43
90
129
48
155
87
174
141
140
54
5
9
159
157
58
94
212
209
166
222
104
72
41
188
101
110
111
82
150
68
95
121
3
126
154
18
162
37
112
136
52
170
215
123
69
128
57
85
103
61
71
75
97
91
114
217
21
130
1
168
81
205
178
89
125
194
192
151
223
177
42
167
165
221
78
73
119
20
102
60
196
92
76
181
10
70
161
207
53
191
134
66
7
27
147
173
139
164
8
46
189
184
23
199
86
39
65
36
176
30
160
206
32
16
193
149
107
109
24
4
116
74
225
117
216
195
26
106
153
124
80
202
99
201
118
56
185
6
169
218
204
47
84
142
137
25
96
12
108
172
31
62
146
179
203
180
51
55
145
163
127
214
15
186
44
17
50
29
152
156
49
133
38
88
138
158
40
13
135
14
171
34
28
131
144
45
100
132
182
98
197
63
148

> <PUBCHEM_MMFF94_PARTIAL_CHARGES>
51
1 -0.36
10 0.27
11 0.41
12 0.14
13 -0.14
14 -0.14
15 0.27
16 0.26
17 -0.15
18 -0.15
19 0.08
2 -0.36
20 0.08
21 -0.3
22 0.05
23 0.46
24 0.28
25 0.28
26 0.08
27 0.09
28 -0.15
29 0.54
3 -0.36
30 -0.15
31 0.12
32 -0.15
33 -0.15
34 -0.14
35 -0.15
36 -0.15
37 0.14
38 -0.15
39 -0.15
4 -0.57
5 -0.81
50 0.15
51 0.15
52 0.15
6 0.31
61 0.15
62 0.15
63 0.37
64 0.15
65 0.15
66 0.15
67 0.15
7 -0.42
71 0.15
72 0.15
8 -0.23
9 -0.55

> <PUBCHEM_EFFECTIVE_ROTOR_COUNT>
11.8

> <PUBCHEM_PHARMACOPHORE_FEATURES>
11
1 1 acceptor
1 2 acceptor
1 3 acceptor
1 4 acceptor
1 5 cation
1 9 donor
5 6 7 8 21 22 rings
6 13 14 17 18 19 20 rings
6 26 27 28 30 32 33 rings
6 31 34 35 36 38 39 rings
6 5 10 11 12 13 14 rings

> <PUBCHEM_HEAVY_ATOM_COUNT>
39

> <PUBCHEM_ATOM_DEF_STEREO_COUNT>
0

> <PUBCHEM_ATOM_UDEF_STEREO_COUNT>
0

> <PUBCHEM_BOND_DEF_STEREO_COUNT>
0

> <PUBCHEM_BOND_UDEF_STEREO_COUNT>
0

> <PUBCHEM_ISOTOPIC_ATOM_COUNT>
0

> <PUBCHEM_COMPONENT_COUNT>
1

> <PUBCHEM_CACTVS_TAUTO_COUNT>
-1

> <PUBCHEM_CONFORMER_ID>
0834746B00000016

> <PUBCHEM_MMFF94_ENERGY>
127.5439

> <PUBCHEM_FEATURE_SELFOVERLAP>
55.851

> <PUBCHEM_SHAPE_FINGERPRINT>
10290309 65 18270973353978103831
11479125 193 16734964573259919436
13782708 43 15338848499733038188
13811026 1 17846493773207061864
14040222 383 18272087181052552521
14294032 229 18337671911130194472
14394314 77 18409729539021594845
14840074 17 18335991882583805377
14931854 50 18131348566930372685
15297060 5 17988931050013747690
15328829 1 18261109665313706522
15890870 6 18411131412684746167
16067689 134 17486223223353009081
16992727 255 18408885135481169324
17492 54 18411702054454654627
19319366 153 18114173082312754027
20511986 3 18186796972267514984
21026386 80 15140965106664601260
21792964 463 17603882061240274516
3383291 50 17203326736930770127
4394409 98 18411699885496319575
5911458 16 18187366536444302590
6036956 94 18263932038532101957

> <PUBCHEM_SHAPE_MULTIPOLES>
754.22
20.69
3.94
2.29
12.08
2.21
0.02
-6.01
9.06
-3.94
0.47
2.28
-1.48
-2.52

> <PUBCHEM_SHAPE_SELFOVERLAP>
1627.86

> <PUBCHEM_SHAPE_VOLUME>
414.1

> <PUBCHEM_COORDINATE_TYPE>
2
5
10

$$$$