132576652
  -OEChem-03242010103D

 73 77  0     1  0  0  0  0  0999 V2000
    7.2030    2.1021   -0.7228 O   0  0  0  0  0  0  0  0  0  0  0  0
    8.6259   -0.2806   -0.5992 O   0  0  0  0  0  0  0  0  0  0  0  0
   -4.9551   -1.1869   -1.0368 O   0  0  0  0  0  0  0  0  0  0  0  0
   -4.3078    2.4758   -1.4105 O   0  0  0  0  0  0  0  0  0  0  0  0
    1.4129    2.6808    1.6764 O   0  0  0  0  0  0  0  0  0  0  0  0
    2.3732   -1.5866   -0.0070 N   0  0  2  0  0  0  0  0  0  0  0  0
   -1.2526   -2.6941    0.1474 N   0  0  0  0  0  0  0  0  0  0  0  0
   -1.6533   -3.0788    1.3700 N   0  0  0  0  0  0  0  0  0  0  0  0
   -2.9755   -2.9562    1.4085 N   0  0  0  0  0  0  0  0  0  0  0  0
   -3.7883    1.1281    0.4387 N   0  0  0  0  0  0  0  0  0  0  0  0
    3.0819   -2.5932    0.7930 C   0  0  0  0  0  0  0  0  0  0  0  0
    3.0029   -0.2652    0.1635 C   0  0  0  0  0  0  0  0  0  0  0  0
    4.5014   -2.7850    0.2494 C   0  0  0  0  0  0  0  0  0  0  0  0
    4.4965   -0.2798   -0.0686 C   0  0  0  0  0  0  0  0  0  0  0  0
    5.2203   -1.4815    0.0174 C   0  0  0  0  0  0  0  0  0  0  0  0
    0.9601   -1.5289    0.3653 C   0  0  0  0  0  0  0  0  0  0  0  0
    0.2076   -2.7191   -0.2285 C   0  0  0  0  0  0  0  0  0  0  0  0
    5.1781    0.9211   -0.3074 C   0  0  0  0  0  0  0  0  0  0  0  0
    6.6081   -1.4700   -0.1735 C   0  0  0  0  0  0  0  0  0  0  0  0
    6.5614    0.9238   -0.4864 C   0  0  0  0  0  0  0  0  0  0  0  0
    7.2753   -0.2709   -0.4218 C   0  0  0  0  0  0  0  0  0  0  0  0
   -2.3042   -2.3153   -0.6291 C   0  0  0  0  0  0  0  0  0  0  0  0
   -3.3898   -2.4896    0.1919 C   0  0  0  0  0  0  0  0  0  0  0  0
   -4.8108   -2.2471   -0.0879 C   0  0  0  0  0  0  0  0  0  0  0  0
    6.3986    3.2788   -0.7734 C   0  0  0  0  0  0  0  0  0  0  0  0
    9.1030   -0.4515   -1.9324 C   0  0  0  0  0  0  0  0  0  0  0  0
   -6.0587   -0.3925   -0.8996 C   0  0  0  0  0  0  0  0  0  0  0  0
   -5.9308    0.9786   -0.6784 C   0  0  0  0  0  0  0  0  0  0  0  0
   -7.3255   -0.9698   -0.9860 C   0  0  0  0  0  0  0  0  0  0  0  0
   -7.0697    1.7726   -0.5435 C   0  0  0  0  0  0  0  0  0  0  0  0
   -4.6177    1.6017   -0.5863 C   0  0  0  0  0  0  0  0  0  0  0  0
   -8.4646   -0.1759   -0.8514 C   0  0  0  0  0  0  0  0  0  0  0  0
   -8.3366    1.1954   -0.6301 C   0  0  0  0  0  0  0  0  0  0  0  0
   -2.4647    1.5226    0.7533 C   0  0  0  0  0  0  0  0  0  0  0  0
   -1.8303    2.5051   -0.0069 C   0  0  0  0  0  0  0  0  0  0  0  0
   -1.7959    0.9290    1.8239 C   0  0  0  0  0  0  0  0  0  0  0  0
   -0.5271    2.8939    0.3032 C   0  0  0  0  0  0  0  0  0  0  0  0
   -0.4928    1.3178    2.1340 C   0  0  0  0  0  0  0  0  0  0  0  0
    0.1416    2.3001    1.3738 C   0  0  0  0  0  0  0  0  0  0  0  0
    2.0000    3.6915    0.8578 C   0  0  0  0  0  0  0  0  0  0  0  0
    2.5894   -3.5701    0.7597 H   0  0  0  0  0  0  0  0  0  0  0  0
    3.1216   -2.2914    1.8488 H   0  0  0  0  0  0  0  0  0  0  0  0
    2.8242    0.1204    1.1761 H   0  0  0  0  0  0  0  0  0  0  0  0
    2.5485    0.4316   -0.5521 H   0  0  0  0  0  0  0  0  0  0  0  0
    4.4577   -3.3245   -0.7054 H   0  0  0  0  0  0  0  0  0  0  0  0
    5.0697   -3.4011    0.9565 H   0  0  0  0  0  0  0  0  0  0  0  0
    0.5027   -0.6208   -0.0484 H   0  0  0  0  0  0  0  0  0  0  0  0
    0.8287   -1.4786    1.4538 H   0  0  0  0  0  0  0  0  0  0  0  0
    0.5612   -3.6911    0.1282 H   0  0  0  0  0  0  0  0  0  0  0  0
    0.2326   -2.7127   -1.3242 H   0  0  0  0  0  0  0  0  0  0  0  0
    4.5706    1.8197   -0.3400 H   0  0  0  0  0  0  0  0  0  0  0  0
    7.1696   -2.4004   -0.1274 H   0  0  0  0  0  0  0  0  0  0  0  0
   -2.1919   -1.9712   -1.6475 H   0  0  0  0  0  0  0  0  0  0  0  0
   -5.2626   -3.1533   -0.5068 H   0  0  0  0  0  0  0  0  0  0  0  0
   -5.3283   -2.0042    0.8494 H   0  0  0  0  0  0  0  0  0  0  0  0
    7.0712    4.1200   -0.9715 H   0  0  0  0  0  0  0  0  0  0  0  0
    5.9150    3.4795    0.1887 H   0  0  0  0  0  0  0  0  0  0  0  0
    5.6826    3.2437   -1.6017 H   0  0  0  0  0  0  0  0  0  0  0  0
   10.1959   -0.4295   -1.9107 H   0  0  0  0  0  0  0  0  0  0  0  0
    8.7493    0.3605   -2.5756 H   0  0  0  0  0  0  0  0  0  0  0  0
    8.7801   -1.4172   -2.3342 H   0  0  0  0  0  0  0  0  0  0  0  0
   -7.4413   -2.0350   -1.1669 H   0  0  0  0  0  0  0  0  0  0  0  0
   -6.9844    2.8422   -0.3693 H   0  0  0  0  0  0  0  0  0  0  0  0
   -9.4510   -0.6250   -0.9207 H   0  0  0  0  0  0  0  0  0  0  0  0
   -9.2235    1.8135   -0.5253 H   0  0  0  0  0  0  0  0  0  0  0  0
   -4.1732    0.4091    1.0479 H   0  0  0  0  0  0  0  0  0  0  0  0
   -2.2825    3.0090   -0.8492 H   0  0  0  0  0  0  0  0  0  0  0  0
   -2.2781    0.1613    2.4235 H   0  0  0  0  0  0  0  0  0  0  0  0
   -0.0929    3.6620   -0.3278 H   0  0  0  0  0  0  0  0  0  0  0  0
    0.0239    0.8505    2.9679 H   0  0  0  0  0  0  0  0  0  0  0  0
    2.1055    3.3572   -0.1799 H   0  0  0  0  0  0  0  0  0  0  0  0
    1.4573    4.6395    0.9366 H   0  0  0  0  0  0  0  0  0  0  0  0
    3.0110    3.8686    1.2392 H   0  0  0  0  0  0  0  0  0  0  0  0
  1 20  1  0  0  0  0
  1 25  1  0  0  0  0
  2 21  1  0  0  0  0
  2 26  1  0  0  0  0
  3 24  1  0  0  0  0
  3 27  1  0  0  0  0
  4 31  2  0  0  0  0
  5 39  1  0  0  0  0
  5 40  1  0  0  0  0
  6 11  1  0  0  0  0
  6 12  1  0  0  0  0
  6 16  1  0  0  0  0
  7  8  1  0  0  0  0
  7 17  1  0  0  0  0
  7 22  1  0  0  0  0
  8  9  2  0  0  0  0
  9 23  1  0  0  0  0
 10 31  1  0  0  0  0
 10 34  1  0  0  0  0
 10 66  1  0  0  0  0
 11 13  1  0  0  0  0
 11 41  1  0  0  0  0
 11 42  1  0  0  0  0
 12 14  1  0  0  0  0
 12 43  1  0  0  0  0
 12 44  1  0  0  0  0
 13 15  1  0  0  0  0
 13 45  1  0  0  0  0
 13 46  1  0  0  0  0
 14 15  1  0  0  0  0
 14 18  2  0  0  0  0
 15 19  2  0  0  0  0
 16 17  1  0  0  0  0
 16 47  1  0  0  0  0
 16 48  1  0  0  0  0
 17 49  1  0  0  0  0
 17 50  1  0  0  0  0
 18 20  1  0  0  0  0
 18 51  1  0  0  0  0
 19 21  1  0  0  0  0
 19 52  1  0  0  0  0
 20 21  2  0  0  0  0
 22 23  2  0  0  0  0
 22 53  1  0  0  0  0
 23 24  1  0  0  0  0
 24 54  1  0  0  0  0
 24 55  1  0  0  0  0
 25 56  1  0  0  0  0
 25 57  1  0  0  0  0
 25 58  1  0  0  0  0
 26 59  1  0  0  0  0
 26 60  1  0  0  0  0
 26 61  1  0  0  0  0
 27 28  1  0  0  0  0
 27 29  2  0  0  0  0
 28 30  2  0  0  0  0
 28 31  1  0  0  0  0
 29 32  1  0  0  0  0
 29 62  1  0  0  0  0
 30 33  1  0  0  0  0
 30 63  1  0  0  0  0
 32 33  2  0  0  0  0
 32 64  1  0  0  0  0
 33 65  1  0  0  0  0
 34 35  2  0  0  0  0
 34 36  1  0  0  0  0
 35 37  1  0  0  0  0
 35 67  1  0  0  0  0
 36 38  2  0  0  0  0
 36 68  1  0  0  0  0
 37 39  2  0  0  0  0
 37 69  1  0  0  0  0
 38 39  1  0  0  0  0
 38 70  1  0  0  0  0
 40 71  1  0  0  0  0
 40 72  1  0  0  0  0
 40 73  1  0  0  0  0
M  END
> <PUBCHEM_COMPOUND_CID>
132576652

> <PUBCHEM_CONFORMER_RMSD>
1.4

> <PUBCHEM_CONFORMER_DIVERSEORDER>
1
112
137
20
96
94
128
7
139
14
103
85
95
115
11
37
110
23
57
77
119
8
130
34
132
101
72
135
70
19
136
104
4
109
87
78
50
52
5
49
30
89
93
33
64
76
90
2
113
97
42
47
60
84
17
39
83
88
55
122
105
116
27
140
15
44
25
35
26
41
29
114
100
121
80
92
67
138
51
9
99
58
133
10
82
126
73
18
66
6
124
62
108
125
123
21
134
75
36
86
32
117
98
3
111
45
46
118
81
71
16
131
107
13
54
129
12
68
53
63
106
38
61
56
69
43
40
22
120
48
74
28
91
24
59
102
127
79
65
31

> <PUBCHEM_MMFF94_PARTIAL_CHARGES>
52
1 -0.36
10 -0.55
11 0.27
12 0.41
13 0.14
14 -0.14
15 -0.14
16 0.27
17 0.26
18 -0.15
19 -0.15
2 -0.36
20 0.08
21 0.08
22 -0.3
23 0.05
24 0.46
25 0.28
26 0.28
27 0.08
28 0.09
29 -0.15
3 -0.36
30 -0.15
31 0.54
32 -0.15
33 -0.15
34 0.12
35 -0.15
36 -0.15
37 -0.15
38 -0.15
39 0.08
4 -0.57
40 0.28
5 -0.36
51 0.15
52 0.15
53 0.15
6 -0.81
62 0.15
63 0.15
64 0.15
65 0.15
66 0.37
67 0.15
68 0.15
69 0.15
7 0.31
70 0.15
8 -0.42
9 -0.23

> <PUBCHEM_EFFECTIVE_ROTOR_COUNT>
12.8

> <PUBCHEM_PHARMACOPHORE_FEATURES>
12
1 1 acceptor
1 10 donor
1 2 acceptor
1 3 acceptor
1 4 acceptor
1 5 acceptor
1 6 cation
5 7 8 9 22 23 rings
6 14 15 18 19 20 21 rings
6 27 28 29 30 32 33 rings
6 34 35 36 37 38 39 rings
6 6 11 12 13 14 15 rings

> <PUBCHEM_HEAVY_ATOM_COUNT>
40

> <PUBCHEM_ATOM_DEF_STEREO_COUNT>
0

> <PUBCHEM_ATOM_UDEF_STEREO_COUNT>
0

> <PUBCHEM_BOND_DEF_STEREO_COUNT>
0

> <PUBCHEM_BOND_UDEF_STEREO_COUNT>
0

> <PUBCHEM_ISOTOPIC_ATOM_COUNT>
0

> <PUBCHEM_COMPONENT_COUNT>
1

> <PUBCHEM_CACTVS_TAUTO_COUNT>
9

> <PUBCHEM_CONFORMER_ID>
07E6F58C00000001

> <PUBCHEM_MMFF94_ENERGY>
137.0425

> <PUBCHEM_FEATURE_SELFOVERLAP>
60.926

> <PUBCHEM_SHAPE_FINGERPRINT>
10483366 6 18411979165675968665
12758862 65 17275105059495274000
13726171 33 17972314015842600297
13811026 1 18412541037893512792
13947947 74 18412822470084262689
14068700 675 17775000185299706953
14394314 77 18337675209723275517
14931854 50 18341325613732623215
15082195 135 18342458132590497810
15160630 1 18412833508240248537
15276724 80 18335134254866047351
15351339 4 18336256843216292715
15781502 145 17679034931473077340
15781502 409 17825106167102037507
15890870 6 18409729547468974967
15975801 100 17386551463333430365
20609170 92 18266458896641396640
21779490 71 15265622245167872282
21792965 158 17556007332714187392
23559900 14 18269825553990177777
25269216 80 16805890714324864195
4093350 32 15213566867482245835
484989 97 18339363067092088147
504579 68 18410301298559069534
54131252 71 18042943456266516288
5776283 40 18408320017023009433
6009941 240 17676211290015546971
6036956 94 18335713748933973733

> <PUBCHEM_SHAPE_MULTIPOLES>
768.93
25.22
4.39
1.38
10.98
0.45
0.33
2.45
-14.8
0.69
0.99
-0.03
0.38
0

> <PUBCHEM_SHAPE_SELFOVERLAP>
1656.902

> <PUBCHEM_SHAPE_VOLUME>
423

> <PUBCHEM_COORDINATE_TYPE>
2
5
10

$$$$