127044902
  -OEChem-03242010103D

 48 51  0     0  0  0  0  0  0999 V2000
   -8.8514    0.4559   -0.3591 O   0  0  0  0  0  0  0  0  0  0  0  0
   -2.4058   -3.1916    0.0843 O   0  0  0  0  0  0  0  0  0  0  0  0
    3.5427   -0.9531   -0.3993 N   0  0  0  0  0  0  0  0  0  0  0  0
    3.6603    1.3074   -1.0417 N   0  0  0  0  0  0  0  0  0  0  0  0
    5.6567    2.5965   -0.6420 N   0  0  0  0  0  0  0  0  0  0  0  0
    5.5771    0.2951    0.0277 C   0  0  0  0  0  0  0  0  0  0  0  0
    4.2796    0.2548   -0.4751 C   0  0  0  0  0  0  0  0  0  0  0  0
    2.1689   -1.2191   -0.2846 C   0  0  0  0  0  0  0  0  0  0  0  0
    6.2455    1.5254   -0.0819 C   0  0  0  0  0  0  0  0  0  0  0  0
   -0.5603   -1.7498   -0.0569 C   0  0  0  0  0  0  0  0  0  0  0  0
    1.3358   -0.3168    0.3768 C   0  0  0  0  0  0  0  0  0  0  0  0
    1.6376   -2.3868   -0.8321 C   0  0  0  0  0  0  0  0  0  0  0  0
    6.2027   -0.8182    0.6153 C   0  0  0  0  0  0  0  0  0  0  0  0
   -0.0287   -0.5822    0.4907 C   0  0  0  0  0  0  0  0  0  0  0  0
    0.2730   -2.6521   -0.7182 C   0  0  0  0  0  0  0  0  0  0  0  0
    7.5460    1.6046    0.4103 C   0  0  0  0  0  0  0  0  0  0  0  0
   -1.9831   -2.0256    0.0609 C   0  0  0  0  0  0  0  0  0  0  0  0
    7.5029   -0.7108    1.0988 C   0  0  0  0  0  0  0  0  0  0  0  0
    8.1751    0.5020    0.9960 C   0  0  0  0  0  0  0  0  0  0  0  0
   -5.2738   -0.0059    0.2515 C   0  0  0  0  0  0  0  0  0  0  0  0
   -2.9384   -0.8667    0.1217 C   0  0  0  0  0  0  0  0  0  0  0  0
   -4.2609   -1.0751    0.2023 C   0  0  0  0  0  0  0  0  0  0  0  0
    4.3964    2.4294   -1.0914 C   0  0  0  0  0  0  0  0  0  0  0  0
   -6.5995   -0.2848   -0.0809 C   0  0  0  0  0  0  0  0  0  0  0  0
   -4.9064    1.2854    0.6304 C   0  0  0  0  0  0  0  0  0  0  0  0
   -7.5578    0.7275   -0.0343 C   0  0  0  0  0  0  0  0  0  0  0  0
   -5.8649    2.2976    0.6769 C   0  0  0  0  0  0  0  0  0  0  0  0
   -7.1906    2.0189    0.3444 C   0  0  0  0  0  0  0  0  0  0  0  0
   -9.7787    1.5382   -0.2905 C   0  0  0  0  0  0  0  0  0  0  0  0
    4.0866   -1.7649   -0.6790 H   0  0  0  0  0  0  0  0  0  0  0  0
    1.7297    0.5888    0.8305 H   0  0  0  0  0  0  0  0  0  0  0  0
    2.2752   -3.0976   -1.3516 H   0  0  0  0  0  0  0  0  0  0  0  0
    5.7029   -1.7772    0.7184 H   0  0  0  0  0  0  0  0  0  0  0  0
   -0.6330    0.1276    1.0476 H   0  0  0  0  0  0  0  0  0  0  0  0
   -0.1232   -3.5650   -1.1554 H   0  0  0  0  0  0  0  0  0  0  0  0
    8.0940    2.5425    0.3421 H   0  0  0  0  0  0  0  0  0  0  0  0
    7.9891   -1.5677    1.5551 H   0  0  0  0  0  0  0  0  0  0  0  0
    9.1901    0.5945    1.3713 H   0  0  0  0  0  0  0  0  0  0  0  0
   -2.5289    0.1306    0.0275 H   0  0  0  0  0  0  0  0  0  0  0  0
   -4.6550   -2.0877    0.2415 H   0  0  0  0  0  0  0  0  0  0  0  0
    3.9275    3.2960   -1.5414 H   0  0  0  0  0  0  0  0  0  0  0  0
   -6.8975   -1.2876   -0.3790 H   0  0  0  0  0  0  0  0  0  0  0  0
   -3.8920    1.5446    0.9189 H   0  0  0  0  0  0  0  0  0  0  0  0
   -5.5794    3.3019    0.9768 H   0  0  0  0  0  0  0  0  0  0  0  0
   -7.8832    2.8515    0.4029 H   0  0  0  0  0  0  0  0  0  0  0  0
  -10.7579    1.1437   -0.5812 H   0  0  0  0  0  0  0  0  0  0  0  0
   -9.5278    2.3292   -1.0054 H   0  0  0  0  0  0  0  0  0  0  0  0
   -9.8783    1.9187    0.7318 H   0  0  0  0  0  0  0  0  0  0  0  0
  1 26  1  0  0  0  0
  1 29  1  0  0  0  0
  2 17  2  0  0  0  0
  3  7  1  0  0  0  0
  3  8  1  0  0  0  0
  3 30  1  0  0  0  0
  4  7  2  0  0  0  0
  4 23  1  0  0  0  0
  5  9  1  0  0  0  0
  5 23  2  0  0  0  0
  6  7  1  0  0  0  0
  6  9  1  0  0  0  0
  6 13  2  0  0  0  0
  8 11  2  0  0  0  0
  8 12  1  0  0  0  0
  9 16  2  0  0  0  0
 10 14  2  0  0  0  0
 10 15  1  0  0  0  0
 10 17  1  0  0  0  0
 11 14  1  0  0  0  0
 11 31  1  0  0  0  0
 12 15  2  0  0  0  0
 12 32  1  0  0  0  0
 13 18  1  0  0  0  0
 13 33  1  0  0  0  0
 14 34  1  0  0  0  0
 15 35  1  0  0  0  0
 16 19  1  0  0  0  0
 16 36  1  0  0  0  0
 17 21  1  0  0  0  0
 18 19  2  0  0  0  0
 18 37  1  0  0  0  0
 19 38  1  0  0  0  0
 20 22  1  0  0  0  0
 20 24  2  0  0  0  0
 20 25  1  0  0  0  0
 21 22  2  0  0  0  0
 21 39  1  0  0  0  0
 22 40  1  0  0  0  0
 23 41  1  0  0  0  0
 24 26  1  0  0  0  0
 24 42  1  0  0  0  0
 25 27  2  0  0  0  0
 25 43  1  0  0  0  0
 26 28  2  0  0  0  0
 27 28  1  0  0  0  0
 27 44  1  0  0  0  0
 28 45  1  0  0  0  0
 29 46  1  0  0  0  0
 29 47  1  0  0  0  0
 29 48  1  0  0  0  0
M  END
> <PUBCHEM_COMPOUND_CID>
127044902

> <PUBCHEM_CONFORMER_RMSD>
1

> <PUBCHEM_CONFORMER_DIVERSEORDER>
1
100
44
89
116
99
91
111
55
9
123
74
40
27
112
119
13
127
90
17
102
5
57
109
122
49
52
108
6
93
65
66
97
113
77
69
4
126
121
34
72
71
21
92
86
79
42
31
7
76
118
22
64
117
101
78
26
12
98
81
15
70
18
58
73
80
63
83
24
30
16
114
67
84
35
62
103
45
54
39
88
56
10
96
28
23
2
37
82
32
106
59
25
105
41
19
51
94
38
75
48
43
11
60
14
125
120
20
3
87
33
104
124
8
46
29
50
95
85
68
36
115
47
61
110
107
53

> <PUBCHEM_MMFF94_PARTIAL_CHARGES>
44
1 -0.36
10 0.09
11 -0.15
12 -0.15
13 -0.15
14 -0.15
15 -0.15
16 -0.15
17 0.47
18 -0.15
19 -0.15
2 -0.57
20 0.03
21 -0.14
22 -0.18
23 0.47
24 -0.15
25 -0.15
26 0.08
27 -0.15
28 -0.15
29 0.28
3 -0.6
30 0.4
31 0.15
32 0.15
33 0.15
34 0.15
35 0.15
36 0.15
37 0.15
38 0.15
39 0.15
4 -0.62
40 0.15
41 0.15
42 0.15
43 0.15
44 0.15
45 0.15
5 -0.62
7 0.41
8 0.1
9 0.31

> <PUBCHEM_EFFECTIVE_ROTOR_COUNT>
6

> <PUBCHEM_PHARMACOPHORE_FEATURES>
9
1 1 acceptor
1 2 acceptor
1 3 donor
3 3 4 7 cation
3 4 5 23 cation
6 20 24 25 26 27 28 rings
6 4 5 6 7 9 23 rings
6 6 9 13 16 18 19 rings
6 8 10 11 12 14 15 rings

> <PUBCHEM_HEAVY_ATOM_COUNT>
29

> <PUBCHEM_ATOM_DEF_STEREO_COUNT>
0

> <PUBCHEM_ATOM_UDEF_STEREO_COUNT>
0

> <PUBCHEM_BOND_DEF_STEREO_COUNT>
1

> <PUBCHEM_BOND_UDEF_STEREO_COUNT>
0

> <PUBCHEM_ISOTOPIC_ATOM_COUNT>
0

> <PUBCHEM_COMPONENT_COUNT>
1

> <PUBCHEM_CACTVS_TAUTO_COUNT>
9

> <PUBCHEM_CONFORMER_ID>
07928D2600000001

> <PUBCHEM_MMFF94_ENERGY>
116.8094

> <PUBCHEM_FEATURE_SELFOVERLAP>
45.844

> <PUBCHEM_SHAPE_FINGERPRINT>
10 15 18114184137552512283
10190108 129 16877938309626035722
10391435 84 12391497702940415228
11475781 23 17988653990690126500
11476731 38 11095876103413994882
117089 54 11315400141583844424
12107183 9 18334009510959684018
12778500 126 18113897174562282240
12838862 33 18339911663391523329
13167372 99 18408887360727772776
13248334 5 18123190100232615175
13673619 4 10881400945731668695
14117953 113 18341902883465751308
14347424 109 18334290981957698312
15183329 4 18341341049602641016
15289351 153 18271523088057685578
15301273 46 14056996109484106498
15419008 145 18114734933366320592
15684393 108 12103847843238057937
1577012 14 18335984285308625622
15840311 113 18334296440180961286
16087824 20 18409167719266993372
16758388 162 18335692833091556600
16989713 51 17273126020275580751
17134984 74 12535631561798509860
1818759 1 10015579528545662205
18335252 98 8070029961462748262
18608769 82 18341056319937772507
19302320 297 18260837024214681812
19611394 137 17897742070534194811
20105231 36 11818989665618205240
20554085 129 17703779319916867682
20715895 44 18412831296036009158
20721686 146 17915739981113268916
20812841 46 17894908495418988186
21033648 29 18058712724729713130
21150785 3 14764626412985024619
21267235 1 8070029973577828682
21591340 7 18410005559637311279
21774942 28 17917718954958979344
21781051 124 12468632799664944712
249057 25 17750520765476872175
25269216 80 16486677182786658869
2748736 6 18413389834620290933
2838139 119 18271241719948676943
2851757 15 18411422804197766891
306946 40 16844998105605513664
312425 54 16877943879798141002
3711267 37 18130519531317280713
3918712 181 18337387120623483873
395649 100 18335978779757651423
445580 126 18411698781251698698
465052 167 11314025786318411986
504843 32 17845935233869569631
5470011 282 12247674980773343674
6299153 45 18335421240712897706
636775 8 10809333418230255848
6371009 1 18342746208410157856
9896288 288 12974426835533632695
99344 41 18411138021736892583
999808 66 11455884798436208773

> <PUBCHEM_SHAPE_MULTIPOLES>
570.12
29.66
2.93
0.9
24.77
0.44
-0.01
-21.31
3.69
0.13
-0.52
-0.95
-0.13
-1.04

> <PUBCHEM_SHAPE_SELFOVERLAP>
1256.878

> <PUBCHEM_SHAPE_VOLUME>
303

> <PUBCHEM_COORDINATE_TYPE>
2
5
10

$$$$