60065
  -OEChem-03242010103D

 68 71  0     1  0  0  0  0  0999 V2000
    0.0922    2.2205    0.2520 O   0  0  0  0  0  0  0  0  0  0  0  0
   -0.2993    1.7062   -1.9710 O   0  0  0  0  0  0  0  0  0  0  0  0
    3.8218   -0.1575    2.3860 O   0  0  0  0  0  0  0  0  0  0  0  0
    4.9974   -1.6353    1.0469 O   0  0  0  0  0  0  0  0  0  0  0  0
   -1.2545   -4.5516    0.7522 O   0  5  0  0  0  0  0  0  0  0  0  0
   -1.0099   -2.8923    2.1686 O   0  0  0  0  0  0  0  0  0  0  0  0
   -3.5114    1.8221    1.0575 N   0  0  2  0  0  0  0  0  0  0  0  0
    4.0839    1.6740   -1.6900 N   0  0  0  0  0  0  0  0  0  0  0  0
   -0.7435   -3.4528    1.0780 N   0  3  0  0  0  0  0  0  0  0  0  0
   -1.2623    2.6278    0.4143 C   0  0  2  0  0  0  0  0  0  0  0  0
   -1.3400    3.7386    1.4586 C   0  0  0  0  0  0  0  0  0  0  0  0
   -2.1185    1.4239    0.8174 C   0  0  0  0  0  0  0  0  0  0  0  0
   -2.7926    4.0856    1.7585 C   0  0  0  0  0  0  0  0  0  0  0  0
   -3.5987    2.8358    2.1184 C   0  0  0  0  0  0  0  0  0  0  0  0
   -4.3268    0.6558    1.3951 C   0  0  0  0  0  0  0  0  0  0  0  0
    2.2612    0.3302    0.0128 C   0  0  2  0  0  0  0  0  0  0  0  0
    1.8385    1.4061   -0.9925 C   0  0  0  0  0  0  0  0  0  0  0  0
    0.4168    1.7878   -0.9902 C   0  0  0  0  0  0  0  0  0  0  0  0
   -4.6573   -0.1683    0.1792 C   0  0  0  0  0  0  0  0  0  0  0  0
    3.7828    0.1749    0.1167 C   0  0  0  0  0  0  0  0  0  0  0  0
    2.7422    2.0003   -1.8040 C   0  0  0  0  0  0  0  0  0  0  0  0
    1.6363   -0.9858   -0.3525 C   0  0  0  0  0  0  0  0  0  0  0  0
    4.6129    0.8272   -0.7287 C   0  0  0  0  0  0  0  0  0  0  0  0
   -5.8133    0.1018   -0.5532 C   0  0  0  0  0  0  0  0  0  0  0  0
   -3.8079   -1.2022   -0.2148 C   0  0  0  0  0  0  0  0  0  0  0  0
    2.4265    3.0271   -2.8579 C   0  0  0  0  0  0  0  0  0  0  0  0
    0.7448   -1.6027    0.5252 C   0  0  0  0  0  0  0  0  0  0  0  0
    1.9475   -1.5908   -1.5701 C   0  0  0  0  0  0  0  0  0  0  0  0
    4.2858   -0.6627    1.2176 C   0  0  0  0  0  0  0  0  0  0  0  0
    6.1136    0.7154   -0.7368 C   0  0  0  0  0  0  0  0  0  0  0  0
   -6.1197   -0.6617   -1.6796 C   0  0  0  0  0  0  0  0  0  0  0  0
   -4.1143   -1.9657   -1.3412 C   0  0  0  0  0  0  0  0  0  0  0  0
    0.1644   -2.8246    0.1851 C   0  0  0  0  0  0  0  0  0  0  0  0
    1.3670   -2.8128   -1.9102 C   0  0  0  0  0  0  0  0  0  0  0  0
   -5.2702   -1.6955   -2.0737 C   0  0  0  0  0  0  0  0  0  0  0  0
    0.4756   -3.4296   -1.0325 C   0  0  0  0  0  0  0  0  0  0  0  0
    4.2292   -0.8692    3.5592 C   0  0  0  0  0  0  0  0  0  0  0  0
   -1.6481    3.0465   -0.5266 H   0  0  0  0  0  0  0  0  0  0  0  0
   -0.7975    4.6245    1.1082 H   0  0  0  0  0  0  0  0  0  0  0  0
   -0.8321    3.4193    2.3777 H   0  0  0  0  0  0  0  0  0  0  0  0
   -2.0447    0.7020   -0.0005 H   0  0  0  0  0  0  0  0  0  0  0  0
   -1.6807    0.9353    1.6991 H   0  0  0  0  0  0  0  0  0  0  0  0
   -2.8378    4.8054    2.5836 H   0  0  0  0  0  0  0  0  0  0  0  0
   -3.2410    4.5733    0.8836 H   0  0  0  0  0  0  0  0  0  0  0  0
   -3.2432    2.4299    3.0747 H   0  0  0  0  0  0  0  0  0  0  0  0
   -4.6432    3.1392    2.2602 H   0  0  0  0  0  0  0  0  0  0  0  0
   -3.8514    0.0318    2.1647 H   0  0  0  0  0  0  0  0  0  0  0  0
   -5.2811    0.9745    1.8376 H   0  0  0  0  0  0  0  0  0  0  0  0
    1.9043    0.6565    0.9990 H   0  0  0  0  0  0  0  0  0  0  0  0
    4.7337    2.1362   -2.3161 H   0  0  0  0  0  0  0  0  0  0  0  0
   -6.4826    0.9058   -0.2586 H   0  0  0  0  0  0  0  0  0  0  0  0
   -2.9133   -1.4357    0.3542 H   0  0  0  0  0  0  0  0  0  0  0  0
    3.0752    3.9021   -2.7389 H   0  0  0  0  0  0  0  0  0  0  0  0
    1.3971    3.3911   -2.8173 H   0  0  0  0  0  0  0  0  0  0  0  0
    2.5975    2.6069   -3.8546 H   0  0  0  0  0  0  0  0  0  0  0  0
    0.5144   -1.1138    1.4690 H   0  0  0  0  0  0  0  0  0  0  0  0
    2.6384   -1.1322   -2.2721 H   0  0  0  0  0  0  0  0  0  0  0  0
    6.4471    0.1996   -1.6434 H   0  0  0  0  0  0  0  0  0  0  0  0
    6.5152    0.1773    0.1251 H   0  0  0  0  0  0  0  0  0  0  0  0
    6.5662    1.7134   -0.7241 H   0  0  0  0  0  0  0  0  0  0  0  0
   -7.0195   -0.4510   -2.2502 H   0  0  0  0  0  0  0  0  0  0  0  0
   -3.4542   -2.7729   -1.6455 H   0  0  0  0  0  0  0  0  0  0  0  0
    1.6093   -3.2836   -2.8585 H   0  0  0  0  0  0  0  0  0  0  0  0
   -5.5091   -2.2905   -2.9503 H   0  0  0  0  0  0  0  0  0  0  0  0
    0.0423   -4.3807   -1.3310 H   0  0  0  0  0  0  0  0  0  0  0  0
    3.8543   -1.8966    3.5273 H   0  0  0  0  0  0  0  0  0  0  0  0
    5.3196   -0.8577    3.6502 H   0  0  0  0  0  0  0  0  0  0  0  0
    3.7989   -0.3654    4.4288 H   0  0  0  0  0  0  0  0  0  0  0  0
  1 10  1  0  0  0  0
  1 18  1  0  0  0  0
  2 18  2  0  0  0  0
  3 29  1  0  0  0  0
  3 37  1  0  0  0  0
  4 29  2  0  0  0  0
  5  9  1  0  0  0  0
  6  9  2  0  0  0  0
  7 12  1  0  0  0  0
  7 14  1  0  0  0  0
  7 15  1  0  0  0  0
  8 21  1  0  0  0  0
  8 23  1  0  0  0  0
  8 50  1  0  0  0  0
  9 33  1  0  0  0  0
 10 11  1  0  0  0  0
 10 12  1  0  0  0  0
 10 38  1  0  0  0  0
 11 13  1  0  0  0  0
 11 39  1  0  0  0  0
 11 40  1  0  0  0  0
 12 41  1  0  0  0  0
 12 42  1  0  0  0  0
 13 14  1  0  0  0  0
 13 43  1  0  0  0  0
 13 44  1  0  0  0  0
 14 45  1  0  0  0  0
 14 46  1  0  0  0  0
 15 19  1  0  0  0  0
 15 47  1  0  0  0  0
 15 48  1  0  0  0  0
 16 17  1  0  0  0  0
 16 20  1  0  0  0  0
 16 22  1  0  0  0  0
 16 49  1  0  0  0  0
 17 18  1  0  0  0  0
 17 21  2  0  0  0  0
 19 24  2  0  0  0  0
 19 25  1  0  0  0  0
 20 23  2  0  0  0  0
 20 29  1  0  0  0  0
 21 26  1  0  0  0  0
 22 27  2  0  0  0  0
 22 28  1  0  0  0  0
 23 30  1  0  0  0  0
 24 31  1  0  0  0  0
 24 51  1  0  0  0  0
 25 32  2  0  0  0  0
 25 52  1  0  0  0  0
 26 53  1  0  0  0  0
 26 54  1  0  0  0  0
 26 55  1  0  0  0  0
 27 33  1  0  0  0  0
 27 56  1  0  0  0  0
 28 34  2  0  0  0  0
 28 57  1  0  0  0  0
 30 58  1  0  0  0  0
 30 59  1  0  0  0  0
 30 60  1  0  0  0  0
 31 35  2  0  0  0  0
 31 61  1  0  0  0  0
 32 35  1  0  0  0  0
 32 62  1  0  0  0  0
 33 36  2  0  0  0  0
 34 36  1  0  0  0  0
 34 63  1  0  0  0  0
 35 64  1  0  0  0  0
 36 65  1  0  0  0  0
 37 66  1  0  0  0  0
 37 67  1  0  0  0  0
 37 68  1  0  0  0  0
M  CHG  2   5  -1   9   1
M  END
> <PUBCHEM_COMPOUND_CID>
60065

> <PUBCHEM_CONFORMER_RMSD>
1.2

> <PUBCHEM_CONFORMER_DIVERSEORDER>
1
109
120
21
24
199
142
201
159
150
47
78
148
133
166
216
198
141
180
32
88
84
124
179
68
178
114
144
113
170
92
222
3
154
48
215
9
132
208
42
168
112
219
125
75
214
192
70
90
105
185
115
196
107
152
44
101
108
46
220
93
184
116
210
134
126
143
91
103
98
53
99
218
89
149
224
61
20
172
110
181
207
65
140
221
31
194
206
64
188
139
175
122
204
217
129
160
136
137
117
169
41
209
4
87
183
121
17
80
176
63
52
202
151
147
100
200
197
163
111
193
71
211
49
43
14
79
187
26
85
162
131
57
51
155
135
190
59
177
104
153
55
173
171
76
96
28
6
56
205
182
174
19
33
203
164
138
223
34
157
7
66
128
146
5
45
37
161
39
195
130
123
38
54
67
156
127
86
58
2
94
69
167
102
30
74
18
23
40
145
11
212
27
158
186
106
62
213
97
77
189
35
10
72
12
119
29
15
118
36
50
25
22
165
82
8
81
83
95
13
73
16
60
191

> <PUBCHEM_MMFF94_PARTIAL_CHARGES>
45
1 -0.43
10 0.28
12 0.27
14 0.27
15 0.41
16 0.42
17 -0.12
18 0.71
19 -0.14
2 -0.57
20 -0.12
21 -0.04
22 -0.14
23 -0.04
24 -0.15
25 -0.15
26 0.14
27 -0.15
28 -0.15
29 0.71
3 -0.43
30 0.14
31 -0.15
32 -0.15
33 0.13
34 -0.15
35 -0.15
36 -0.15
37 0.28
4 -0.57
5 -0.52
50 0.4
51 0.15
52 0.15
56 0.15
57 0.15
6 -0.52
61 0.15
62 0.15
63 0.15
64 0.15
65 0.15
7 -0.81
8 -0.6
9 0.91

> <PUBCHEM_EFFECTIVE_ROTOR_COUNT>
10.6

> <PUBCHEM_PHARMACOPHORE_FEATURES>
12
1 2 acceptor
1 4 acceptor
1 5 acceptor
1 5 anion
1 6 acceptor
1 7 cation
1 8 cation
1 8 donor
6 19 24 25 31 32 35 rings
6 22 27 28 33 34 36 rings
6 7 10 11 12 13 14 rings
6 8 16 17 20 21 23 rings

> <PUBCHEM_HEAVY_ATOM_COUNT>
37

> <PUBCHEM_ATOM_DEF_STEREO_COUNT>
1

> <PUBCHEM_ATOM_UDEF_STEREO_COUNT>
1

> <PUBCHEM_BOND_DEF_STEREO_COUNT>
0

> <PUBCHEM_BOND_UDEF_STEREO_COUNT>
0

> <PUBCHEM_ISOTOPIC_ATOM_COUNT>
0

> <PUBCHEM_COMPONENT_COUNT>
1

> <PUBCHEM_CACTVS_TAUTO_COUNT>
3

> <PUBCHEM_CONFORMER_ID>
0000EAA100000001

> <PUBCHEM_MMFF94_ENERGY>
95.8537

> <PUBCHEM_FEATURE_SELFOVERLAP>
60.978

> <PUBCHEM_SHAPE_FINGERPRINT>
10032420 55 18342453747107349265
11421498 54 18273491265505873287
11513181 2 18128550279277780542
12106331 60 18408613547413724760
12422481 6 18124587592463998298
12788726 201 18341899622778529497
13583140 156 16951138394322790778
13782708 43 16343713118407011772
14068700 675 18200866375039671509
14178342 30 18196372511549175528
15297060 5 18129963246366644618
17138139 8 18198899391655078919
17349148 13 18408325479609583789
17909252 39 17488756574908990270
20028762 73 18341609279016613166
20587220 46 14328333856187011463
20764821 26 18193023549882281723
20775438 99 16475123737883246535
3380486 77 17967800644093356658
392239 28 18130494288891895297
463206 1 18342174531652142791
581034 39 18201723903271263475
6287921 2 18126578811926302463
66674814 147 18334856164777018965

> <PUBCHEM_SHAPE_MULTIPOLES>
711.28
11.95
5.04
2.71
4.46
0.35
0.68
0.03
-1.04
3.08
1
-1.79
-0.46
-3.96

> <PUBCHEM_SHAPE_SELFOVERLAP>
1526.088

> <PUBCHEM_SHAPE_VOLUME>
391.3

> <PUBCHEM_COORDINATE_TYPE>
2
5
10

$$$$