147
 OpenBabel03292022003D

128136  0  0  1  0  0  0  0  0999 V2000
   -3.6779   -9.5264   11.2469 C   0  0  0  0  0  0  0  0  0  0  0  0
   -2.6006   -8.9044   11.7405 C   0  0  0  0  0  0  0  0  0  0  0  0
   -1.3131   -8.7148   10.9772 C   0  0  1  0  0  0  0  0  0  0  0  0
   -0.8905   -7.2220   10.8995 C   0  0  0  0  0  0  0  0  0  0  0  0
    0.5652   -7.0527   11.1546 N   0  0  3  0  0  0  0  0  0  0  0  0
    1.2774   -7.9608   10.2444 C   0  0  0  0  0  0  0  0  0  0  0  0
    1.0423   -9.4306   10.6264 C   0  0  0  0  0  0  0  0  0  0  0  0
   -0.1429   -9.5075   11.6065 C   0  0  1  0  0  0  0  0  0  0  0  0
    0.2997   -8.8122   12.9078 C   0  0  0  0  0  0  0  0  0  0  0  0
    0.8547   -7.4042   12.5906 C   0  0  1  0  0  0  0  0  0  0  0  0
    2.3373   -7.1392   13.1123 C   0  0  2  0  0  0  0  0  0  0  0  0
    3.3217   -8.0560   12.5397 O   0  0  0  0  0  0  0  0  0  0  0  0
    3.6794   -9.1597   13.2371 C   0  0  0  0  0  0  0  0  0  0  0  0
    3.1530   -9.5184   14.2846 O   0  0  0  0  0  0  0  0  0  0  0  0
    4.8055   -9.9625   12.6012 C   0  0  0  0  0  0  0  0  0  0  0  0
    5.5544   -9.3768   11.4014 C   0  0  0  0  0  0  0  0  0  0  0  0
    4.7524   -9.4506   10.1021 C   0  0  0  0  0  0  0  0  0  0  0  0
    5.4478   -8.8067    8.9062 C   0  0  0  0  0  0  0  0  0  0  0  0
    6.6013   -9.5927    8.4209 C   0  0  0  0  0  0  0  0  0  0  0  0
    6.6284  -10.6499    7.5406 C   0  0  0  0  0  0  0  0  0  0  0  0
    7.9564  -10.9077    7.3896 N   0  0  0  0  0  0  0  0  0  0  0  0
    8.5779  -11.7476    6.3904 C   0  0  0  0  0  0  0  0  0  0  0  0
    8.3034  -11.2609    4.9644 C   0  0  0  0  0  0  0  0  0  0  0  0
    8.8098   -9.8365    4.7199 C   0  0  0  0  0  0  0  0  0  0  0  0
    8.4792   -9.3601    3.3096 C   0  0  0  0  0  0  0  0  0  0  0  0
    9.1599   -8.0557    2.9770 C   0  0  0  0  0  0  0  0  0  0  0  0
    9.7483   -7.8922    1.9181 O   0  0  0  0  0  0  0  0  0  0  0  0
    9.0391   -7.1528    3.9833 O   0  0  0  0  0  0  0  0  0  0  0  0
    9.8793   -5.9579    4.0181 C   0  0  2  0  0  0  0  0  0  0  0  0
    9.9036   -5.1963    2.6913 C   0  0  0  0  0  0  0  0  0  0  0  0
   11.0452   -5.2623    1.8773 C   0  0  0  0  0  0  0  0  0  0  0  0
   11.0385   -4.6435    0.6373 C   0  0  0  0  0  0  0  0  0  0  0  0
    9.9800   -3.9823    0.1511 N   0  0  0  0  0  0  0  0  0  0  0  0
    8.8761   -3.9273    0.9010 C   0  0  0  0  0  0  0  0  0  0  0  0
    7.7761   -3.3043    0.3498 C   0  0  0  0  0  0  0  0  0  0  0  0
    6.5679   -3.1896    1.0292 C   0  0  0  0  0  0  0  0  0  0  0  0
    6.4527   -3.6852    2.3219 C   0  0  0  0  0  0  0  0  0  0  0  0
    5.3329   -3.6182    3.1038 O   0  0  0  0  0  0  0  0  0  0  0  0
    4.1524   -3.1288    2.4752 C   0  0  0  0  0  0  0  0  0  0  0  0
    7.5506   -4.3216    2.9051 C   0  0  0  0  0  0  0  0  0  0  0  0
    8.7748   -4.4892    2.2047 C   0  0  0  0  0  0  0  0  0  0  0  0
   11.2763   -6.3273    4.6547 C   0  0  2  0  0  0  0  0  0  0  0  0
   11.1334   -6.9896    6.0536 C   0  0  0  0  0  0  0  0  0  0  0  0
   11.9704   -6.2134    7.0911 C   0  0  2  0  0  0  0  0  0  0  0  0
   11.5090   -4.7453    7.0563 C   0  0  0  0  0  0  0  0  0  0  0  0
   11.7828   -4.1573    5.6677 C   0  0  0  0  0  0  0  0  0  0  0  0
   12.2544   -5.1939    4.7291 N   0  0  3  0  0  0  0  0  0  0  0  0
   13.5532   -5.7284    5.2117 C   0  0  0  0  0  0  0  0  0  0  0  0
   13.4661   -6.2431    6.6753 C   0  0  2  0  0  0  0  0  0  0  0  0
   14.0864   -7.5972    6.9506 C   0  0  0  0  0  0  0  0  0  0  0  0
   15.0777   -8.1869    6.2702 C   0  0  0  0  0  0  0  0  0  0  0  0
    8.7044  -10.1184    8.1787 N   0  0  0  0  0  0  0  0  0  0  0  0
    7.8794   -9.2984    8.8140 N   0  0  0  0  0  0  0  0  0  0  0  0
    2.7468   -5.6908   12.7742 C   0  0  0  0  0  0  0  0  0  0  0  0
    3.6250   -5.4685   11.7035 C   0  0  0  0  0  0  0  0  0  0  0  0
    3.8230   -4.1822   11.2468 C   0  0  0  0  0  0  0  0  0  0  0  0
    3.1885   -3.1086   11.7465 N   0  0  0  0  0  0  0  0  0  0  0  0
    2.3345   -3.3006   12.7603 C   0  0  0  0  0  0  0  0  0  0  0  0
    1.5951   -2.2051   13.1767 C   0  0  0  0  0  0  0  0  0  0  0  0
    0.6509   -2.2907   14.2020 C   0  0  0  0  0  0  0  0  0  0  0  0
    0.4879   -3.4885   14.8818 C   0  0  0  0  0  0  0  0  0  0  0  0
   -0.3755   -3.7002   15.9210 O   0  0  0  0  0  0  0  0  0  0  0  0
   -1.4490   -2.7711   16.0427 C   0  0  0  0  0  0  0  0  0  0  0  0
    1.2448   -4.5996   14.4943 C   0  0  0  0  0  0  0  0  0  0  0  0
    2.1166   -4.5573   13.3746 C   0  0  0  0  0  0  0  0  0  0  0  0
   -4.5742   -9.6398   11.8492 H   0  0  0  0  0  0  0  0  0  0  0  0
   -3.6923   -9.9378   10.2426 H   0  0  0  0  0  0  0  0  0  0  0  0
   -2.6471   -8.5152   12.7556 H   0  0  0  0  0  0  0  0  0  0  0  0
   -1.4527   -9.0835    9.9506 H   0  0  0  0  0  0  0  0  0  0  0  0
   -1.4626   -6.5897   11.5893 H   0  0  0  0  0  0  0  0  0  0  0  0
   -1.1201   -6.8361    9.8968 H   0  0  0  0  0  0  0  0  0  0  0  0
    2.3327   -7.6967   10.2340 H   0  0  0  0  0  0  0  0  0  0  0  0
    0.9534   -7.7900    9.2098 H   0  0  0  0  0  0  0  0  0  0  0  0
    1.9304   -9.8663   11.0941 H   0  0  0  0  0  0  0  0  0  0  0  0
    0.8381  -10.0192    9.7253 H   0  0  0  0  0  0  0  0  0  0  0  0
   -0.4151  -10.5512   11.8003 H   0  0  0  0  0  0  0  0  0  0  0  0
    1.0151   -9.4415   13.4307 H   0  0  0  0  0  0  0  0  0  0  0  0
   -0.5523   -8.7143   13.5917 H   0  0  0  0  0  0  0  0  0  0  0  0
    0.2332   -6.7106   13.1717 H   0  0  0  0  0  0  0  0  0  0  0  0
    2.3615   -7.2452   14.2033 H   0  0  0  0  0  0  0  0  0  0  0  0
    4.4113  -10.9515   12.3400 H   0  0  0  0  0  0  0  0  0  0  0  0
    5.5459  -10.0990   13.3998 H   0  0  0  0  0  0  0  0  0  0  0  0
    6.4769   -9.9562   11.2684 H   0  0  0  0  0  0  0  0  0  0  0  0
    5.8524   -8.3430   11.6073 H   0  0  0  0  0  0  0  0  0  0  0  0
    3.8258   -8.9135   10.2474 H   0  0  0  0  0  0  0  0  0  0  0  0
    4.4790  -10.4884    9.8772 H   0  0  0  0  0  0  0  0  0  0  0  0
    5.7641   -7.7861    9.1533 H   0  0  0  0  0  0  0  0  0  0  0  0
    4.7213   -8.7099    8.0888 H   0  0  0  0  0  0  0  0  0  0  0  0
    5.8582  -11.1680    6.9886 H   0  0  0  0  0  0  0  0  0  0  0  0
    8.1806  -12.7588    6.5312 H   0  0  0  0  0  0  0  0  0  0  0  0
    9.6553  -11.7781    6.5889 H   0  0  0  0  0  0  0  0  0  0  0  0
    7.2267  -11.3023    4.7582 H   0  0  0  0  0  0  0  0  0  0  0  0
    8.7869  -11.9476    4.2596 H   0  0  0  0  0  0  0  0  0  0  0  0
    9.8935   -9.7985    4.8854 H   0  0  0  0  0  0  0  0  0  0  0  0
    8.3572   -9.1430    5.4377 H   0  0  0  0  0  0  0  0  0  0  0  0
    7.3995   -9.2574    3.1599 H   0  0  0  0  0  0  0  0  0  0  0  0
    8.8476  -10.1034    2.5909 H   0  0  0  0  0  0  0  0  0  0  0  0
    9.3889   -5.3022    4.7480 H   0  0  0  0  0  0  0  0  0  0  0  0
   11.9301   -5.8149    2.1583 H   0  0  0  0  0  0  0  0  0  0  0  0
   11.9095   -4.6844   -0.0031 H   0  0  0  0  0  0  0  0  0  0  0  0
    7.8608   -2.9126   -0.6656 H   0  0  0  0  0  0  0  0  0  0  0  0
    5.7447   -2.7053    0.5181 H   0  0  0  0  0  0  0  0  0  0  0  0
    3.3367   -3.1811    3.2027 H   0  0  0  0  0  0  0  0  0  0  0  0
    3.8763   -3.7542    1.6197 H   0  0  0  0  0  0  0  0  0  0  0  0
    4.2662   -2.0815    2.1780 H   0  0  0  0  0  0  0  0  0  0  0  0
    7.4366   -4.6982    3.9196 H   0  0  0  0  0  0  0  0  0  0  0  0
   11.7067   -7.0983    3.9990 H   0  0  0  0  0  0  0  0  0  0  0  0
   11.4845   -8.0278    6.0015 H   0  0  0  0  0  0  0  0  0  0  0  0
   10.0888   -7.0249    6.3823 H   0  0  0  0  0  0  0  0  0  0  0  0
   11.8228   -6.6281    8.0945 H   0  0  0  0  0  0  0  0  0  0  0  0
   12.0430   -4.1623    7.8162 H   0  0  0  0  0  0  0  0  0  0  0  0
   10.4397   -4.6820    7.2905 H   0  0  0  0  0  0  0  0  0  0  0  0
   12.5330   -3.3592    5.7379 H   0  0  0  0  0  0  0  0  0  0  0  0
   10.8835   -3.6633    5.2821 H   0  0  0  0  0  0  0  0  0  0  0  0
   14.3117   -4.9374    5.1473 H   0  0  0  0  0  0  0  0  0  0  0  0
   13.8846   -6.5032    4.5111 H   0  0  0  0  0  0  0  0  0  0  0  0
   13.9982   -5.5293    7.3207 H   0  0  0  0  0  0  0  0  0  0  0  0
   13.6911   -8.1295    7.8164 H   0  0  0  0  0  0  0  0  0  0  0  0
   15.5646   -7.7216    5.4198 H   0  0  0  0  0  0  0  0  0  0  0  0
   15.4450   -9.1636    6.5727 H   0  0  0  0  0  0  0  0  0  0  0  0
    4.1077   -6.2844   11.1784 H   0  0  0  0  0  0  0  0  0  0  0  0
    4.4823   -3.9830   10.4078 H   0  0  0  0  0  0  0  0  0  0  0  0
    1.7313   -1.2588   12.6571 H   0  0  0  0  0  0  0  0  0  0  0  0
    0.0751   -1.4038   14.4428 H   0  0  0  0  0  0  0  0  0  0  0  0
   -2.1453   -3.1605   16.7917 H   0  0  0  0  0  0  0  0  0  0  0  0
   -1.9988   -2.6706   15.1000 H   0  0  0  0  0  0  0  0  0  0  0  0
   -1.0908   -1.7982   16.3945 H   0  0  0  0  0  0  0  0  0  0  0  0
    1.1152   -5.5179   15.0616 H   0  0  0  0  0  0  0  0  0  0  0  0
  1  2  2  0  0  0  0
  1 66  1  0  0  0  0
  1 67  1  0  0  0  0
  2 68  1  0  0  0  0
  3  4  1  0  0  0  0
  3  8  1  0  0  0  0
  3  2  1  0  0  0  0
  3 69  1  6  0  0  0
  4  5  1  0  0  0  0
  4 70  1  0  0  0  0
  4 71  1  0  0  0  0
  5  6  1  0  0  0  0
  5 10  1  0  0  0  0
  6  7  1  0  0  0  0
  6 72  1  0  0  0  0
  6 73  1  0  0  0  0
  7  8  1  0  0  0  0
  7 74  1  0  0  0  0
  7 75  1  0  0  0  0
  8  9  1  0  0  0  0
  8 76  1  1  0  0  0
  9 10  1  0  0  0  0
  9 77  1  0  0  0  0
  9 78  1  0  0  0  0
 10 11  1  0  0  0  0
 10 79  1  1  0  0  0
 11 54  1  0  0  0  0
 11 12  1  0  0  0  0
 11 80  1  6  0  0  0
 12 13  1  0  0  0  0
 13 14  2  0  0  0  0
 13 15  1  0  0  0  0
 15 16  1  0  0  0  0
 15 81  1  0  0  0  0
 15 82  1  0  0  0  0
 16 17  1  0  0  0  0
 16 83  1  0  0  0  0
 16 84  1  0  0  0  0
 17 18  1  0  0  0  0
 17 85  1  0  0  0  0
 17 86  1  0  0  0  0
 18 19  1  0  0  0  0
 18 87  1  0  0  0  0
 18 88  1  0  0  0  0
 19 20  2  0  0  0  0
 19 53  1  0  0  0  0
 20 21  1  0  0  0  0
 20 89  1  0  0  0  0
 21 22  1  0  0  0  0
 21 52  1  0  0  0  0
 22 23  1  0  0  0  0
 22 90  1  0  0  0  0
 22 91  1  0  0  0  0
 23 24  1  0  0  0  0
 23 92  1  0  0  0  0
 23 93  1  0  0  0  0
 24 25  1  0  0  0  0
 24 94  1  0  0  0  0
 24 95  1  0  0  0  0
 25 26  1  0  0  0  0
 25 96  1  0  0  0  0
 25 97  1  0  0  0  0
 26 27  2  0  0  0  0
 26 28  1  0  0  0  0
 29 42  1  0  0  0  0
 29 30  1  0  0  0  0
 29 28  1  0  0  0  0
 29 98  1  1  0  0  0
 30 31  1  0  0  0  0
 30 41  2  0  0  0  0
 31 32  2  0  0  0  0
 31 99  1  0  0  0  0
 32 33  1  0  0  0  0
 32100  1  0  0  0  0
 33 34  2  0  0  0  0
 34 35  1  0  0  0  0
 34 41  1  0  0  0  0
 35 36  2  0  0  0  0
 35101  1  0  0  0  0
 36 37  1  0  0  0  0
 36102  1  0  0  0  0
 37 38  1  0  0  0  0
 37 40  2  0  0  0  0
 38 39  1  0  0  0  0
 39103  1  0  0  0  0
 39104  1  0  0  0  0
 39105  1  0  0  0  0
 40 41  1  0  0  0  0
 40106  1  0  0  0  0
 42 43  1  0  0  0  0
 42 47  1  0  0  0  0
 42107  1  6  0  0  0
 43 44  1  0  0  0  0
 43108  1  0  0  0  0
 43109  1  0  0  0  0
 44 45  1  0  0  0  0
 44 49  1  0  0  0  0
 44110  1  1  0  0  0
 45 46  1  0  0  0  0
 45111  1  0  0  0  0
 45112  1  0  0  0  0
 46 47  1  0  0  0  0
 46113  1  0  0  0  0
 46114  1  0  0  0  0
 47 48  1  0  0  0  0
 48 49  1  0  0  0  0
 48115  1  0  0  0  0
 48116  1  0  0  0  0
 49 50  1  0  0  0  0
 49117  1  1  0  0  0
 50 51  2  0  0  0  0
 50118  1  0  0  0  0
 51119  1  0  0  0  0
 51120  1  0  0  0  0
 52 53  2  0  0  0  0
 54 55  1  0  0  0  0
 54 65  2  0  0  0  0
 55 56  2  0  0  0  0
 55121  1  0  0  0  0
 56 57  1  0  0  0  0
 56122  1  0  0  0  0
 57 58  2  0  0  0  0
 58 59  1  0  0  0  0
 58 65  1  0  0  0  0
 59 60  2  0  0  0  0
 59123  1  0  0  0  0
 60 61  1  0  0  0  0
 60124  1  0  0  0  0
 61 62  1  0  0  0  0
 61 64  2  0  0  0  0
 62 63  1  0  0  0  0
 63125  1  0  0  0  0
 63126  1  0  0  0  0
 63127  1  0  0  0  0
 64 65  1  0  0  0  0
 64128  1  0  0  0  0
M  END
>  <Energy>
225.709

$$$$