7
 OpenBabel03292021413D

110114  0  0  0  0  0  0  0  0999 V2000
   -0.2597   -8.5275    4.4537 C   0  0  0  0  0  0  0  0  0  0  0  0
    1.0393   -9.1015    4.5384 O   0  0  0  0  0  0  0  0  0  0  0  0
    2.0347   -8.0860    4.5214 C   0  0  0  0  0  0  0  0  0  0  0  0
    3.4291   -8.6929    4.5867 C   0  0  0  0  0  0  0  0  0  0  0  0
    4.3292   -7.5966    4.5981 O   0  0  0  0  0  0  0  0  0  0  0  0
    5.6960   -7.9707    4.6716 C   0  0  0  0  0  0  0  0  0  0  0  0
    6.4626   -6.6567    4.6924 C   0  0  0  0  0  0  0  0  0  0  0  0
    7.8631   -6.8720    4.7550 O   0  0  0  0  0  0  0  0  0  0  0  0
    8.5508   -5.6179    4.7681 C   0  0  0  0  0  0  0  0  0  0  0  0
   10.0270   -5.9270    4.8179 C   0  0  0  0  0  0  0  0  0  0  0  0
   10.8148   -4.7379    4.8169 O   0  0  0  0  0  0  0  0  0  0  0  0
   12.1689   -4.9681    4.9381 C   0  0  0  0  0  0  0  0  0  0  0  0
   12.7091   -6.2603    4.9509 C   0  0  0  0  0  0  0  0  0  0  0  0
   14.0634   -6.4568    5.1449 C   0  0  0  0  0  0  0  0  0  0  0  0
   14.9161   -5.3614    5.2808 C   0  0  0  0  0  0  0  0  0  0  0  0
   14.4010   -4.0615    5.2234 C   0  0  0  0  0  0  0  0  0  0  0  0
   13.0224   -3.8524    5.0692 C   0  0  0  0  0  0  0  0  0  0  0  0
   12.4309   -2.6137    5.0350 O   0  0  0  0  0  0  0  0  0  0  0  0
   13.2769   -1.4839    5.2150 C   0  0  0  0  0  0  0  0  0  0  0  0
   16.3882   -5.6505    5.4045 C   0  0  0  0  0  0  0  0  0  0  0  0
   16.7148   -6.7787    6.3077 N   0  0  0  0  0  0  0  0  0  0  0  0
   17.9654   -7.4314    5.8982 C   0  0  0  0  0  0  0  0  0  0  0  0
   19.1663   -6.4778    5.9403 C   0  0  0  0  0  0  0  0  0  0  0  0
   20.4367   -7.1764    5.5381 C   0  0  0  0  0  0  0  0  0  0  0  0
   20.5705   -7.6982    4.2471 C   0  0  0  0  0  0  0  0  0  0  0  0
   21.7539   -8.3183    3.8537 C   0  0  0  0  0  0  0  0  0  0  0  0
   22.8276   -8.4107    4.7362 C   0  0  0  0  0  0  0  0  0  0  0  0
   24.0684   -8.9748    4.3767 N   0  0  0  0  0  0  0  0  0  0  0  0
   24.5018   -9.2282    3.0869 C   0  0  0  0  0  0  0  0  0  0  0  0
   23.9240   -8.9600    2.0409 O   0  0  0  0  0  0  0  0  0  0  0  0
   25.8521   -9.8317    2.9895 C   0  0  0  0  0  0  0  0  0  0  0  0
   26.2368  -10.8444    3.8627 C   0  0  0  0  0  0  0  0  0  0  0  0
   27.5106  -11.3882    3.7393 C   0  0  0  0  0  0  0  0  0  0  0  0
   28.4103  -10.9428    2.7391 C   0  0  0  0  0  0  0  0  0  0  0  0
   29.7747  -11.5005    2.9211 C   0  0  0  0  0  0  0  0  0  0  0  0
   30.2983  -11.5270    4.0260 O   0  0  0  0  0  0  0  0  0  0  0  0
   30.3078  -12.1221    1.8592 O   0  0  0  0  0  0  0  0  0  0  0  0
   28.0202   -9.9241    1.8370 C   0  0  0  0  0  0  0  0  0  0  0  0
   28.8227   -9.3431    0.8049 N   0  0  0  0  0  0  0  0  0  0  0  0
   29.3581  -10.1115   -0.2175 C   0  0  0  0  0  0  0  0  0  0  0  0
   29.2737  -11.3468   -0.2184 O   0  0  0  0  0  0  0  0  0  0  0  0
   29.9949   -9.4249   -1.4035 C   0  0  0  0  0  0  0  0  0  0  0  0
   30.3754  -10.2306   -2.4642 C   0  0  0  0  0  0  0  0  0  0  0  0
   30.9694   -9.6533   -3.5744 C   0  0  0  0  0  0  0  0  0  0  0  0
   31.1172   -8.2702   -3.6289 C   0  0  0  0  0  0  0  0  0  0  0  0
   31.6239   -7.6732   -4.7966 C   0  0  0  0  0  0  0  0  0  0  0  0
   31.6849   -6.2911   -4.9082 C   0  0  0  0  0  0  0  0  0  0  0  0
   31.2977   -5.5113   -3.8262 C   0  0  0  0  0  0  0  0  0  0  0  0
   30.8372   -6.1171   -2.6426 C   0  0  0  0  0  0  0  0  0  0  0  0
   30.6967   -7.5011   -2.5141 C   0  0  0  0  0  0  0  0  0  0  0  0
   30.1490   -8.0682   -1.3958 N   0  0  0  0  0  0  0  0  0  0  0  0
   26.7293   -9.3829    1.9825 C   0  0  0  0  0  0  0  0  0  0  0  0
   22.6848   -7.9217    6.0399 C   0  0  0  0  0  0  0  0  0  0  0  0
   21.4992   -7.2990    6.4365 C   0  0  0  0  0  0  0  0  0  0  0  0
   15.6391   -7.7825    6.4454 C   0  0  0  0  0  0  0  0  0  0  0  0
   14.6472   -7.8315    5.2818 C   0  0  0  0  0  0  0  0  0  0  0  0
    1.2823    1.3839   -0.8051 O   0  0  0  0  0  0  0  0  0  0  0  0
    2.4605    1.1871   -1.0800 C   0  0  0  0  0  0  0  0  0  0  0  0
    2.8726   -0.0905   -1.2836 O   0  0  0  0  0  0  0  0  0  0  0  0
    3.5641    2.2445   -1.2015 C   0  0  0  0  0  0  0  0  0  0  0  0
    4.7515    1.7415   -1.6441 F   0  0  0  0  0  0  0  0  0  0  0  0
    3.2293    3.2428   -2.0673 F   0  0  0  0  0  0  0  0  0  0  0  0
    3.8282    2.8472   -0.0076 F   0  0  0  0  0  0  0  0  0  0  0  0
   -0.9971   -9.3255    4.5647 H   0  0  0  0  0  0  0  0  0  0  0  0
   -0.3986   -8.0506    3.4784 H   0  0  0  0  0  0  0  0  0  0  0  0
   -0.4119   -7.7947    5.2529 H   0  0  0  0  0  0  0  0  0  0  0  0
    1.8948   -7.4112    5.3760 H   0  0  0  0  0  0  0  0  0  0  0  0
    1.9435   -7.4798    3.6108 H   0  0  0  0  0  0  0  0  0  0  0  0
    3.6134   -9.3339    3.7171 H   0  0  0  0  0  0  0  0  0  0  0  0
    3.5453   -9.2983    5.4929 H   0  0  0  0  0  0  0  0  0  0  0  0
    5.9835   -8.5757    3.8034 H   0  0  0  0  0  0  0  0  0  0  0  0
    5.8972   -8.5536    5.5779 H   0  0  0  0  0  0  0  0  0  0  0  0
    6.1386   -6.0643    5.5584 H   0  0  0  0  0  0  0  0  0  0  0  0
    6.2170   -6.0818    3.7939 H   0  0  0  0  0  0  0  0  0  0  0  0
    8.2554   -5.0298    5.6444 H   0  0  0  0  0  0  0  0  0  0  0  0
    8.3148   -5.0422    3.8661 H   0  0  0  0  0  0  0  0  0  0  0  0
   10.2672   -6.5409    3.9388 H   0  0  0  0  0  0  0  0  0  0  0  0
   10.2119   -6.5134    5.7287 H   0  0  0  0  0  0  0  0  0  0  0  0
   12.0984   -7.1497    4.8448 H   0  0  0  0  0  0  0  0  0  0  0  0
   15.0941   -3.2324    5.3114 H   0  0  0  0  0  0  0  0  0  0  0  0
   12.6557   -0.5832    5.1704 H   0  0  0  0  0  0  0  0  0  0  0  0
   14.0183   -1.4116    4.4117 H   0  0  0  0  0  0  0  0  0  0  0  0
   13.7613   -1.5029    6.1975 H   0  0  0  0  0  0  0  0  0  0  0  0
   16.9081   -4.7556    5.7652 H   0  0  0  0  0  0  0  0  0  0  0  0
   16.7440   -5.8479    4.3827 H   0  0  0  0  0  0  0  0  0  0  0  0
   17.8435   -7.8688    4.8980 H   0  0  0  0  0  0  0  0  0  0  0  0
   18.1794   -8.2666    6.5785 H   0  0  0  0  0  0  0  0  0  0  0  0
   19.2620   -6.0588    6.9499 H   0  0  0  0  0  0  0  0  0  0  0  0
   19.0303   -5.6270    5.2618 H   0  0  0  0  0  0  0  0  0  0  0  0
   19.7573   -7.6225    3.5281 H   0  0  0  0  0  0  0  0  0  0  0  0
   21.8028   -8.7250    2.8486 H   0  0  0  0  0  0  0  0  0  0  0  0
   24.7434   -9.0677    5.1258 H   0  0  0  0  0  0  0  0  0  0  0  0
   25.5645  -11.2212    4.6316 H   0  0  0  0  0  0  0  0  0  0  0  0
   27.8257  -12.1496    4.4547 H   0  0  0  0  0  0  0  0  0  0  0  0
   29.7667  -12.0490    1.0365 H   0  0  0  0  0  0  0  0  0  0  0  0
   28.5995   -8.3988    0.5009 H   0  0  0  0  0  0  0  0  0  0  0  0
   30.1956  -11.3039   -2.4515 H   0  0  0  0  0  0  0  0  0  0  0  0
   31.2819  -10.2825   -4.4046 H   0  0  0  0  0  0  0  0  0  0  0  0
   31.9348   -8.2836   -5.6435 H   0  0  0  0  0  0  0  0  0  0  0  0
   32.0183   -5.8317   -5.8359 H   0  0  0  0  0  0  0  0  0  0  0  0
   31.3374   -4.4261   -3.9072 H   0  0  0  0  0  0  0  0  0  0  0  0
   30.5507   -5.4769   -1.8117 H   0  0  0  0  0  0  0  0  0  0  0  0
   26.3716   -8.6198    1.2927 H   0  0  0  0  0  0  0  0  0  0  0  0
   23.4990   -7.9861    6.7562 H   0  0  0  0  0  0  0  0  0  0  0  0
   21.4156   -6.8992    7.4450 H   0  0  0  0  0  0  0  0  0  0  0  0
   15.0878   -7.5264    7.3613 H   0  0  0  0  0  0  0  0  0  0  0  0
   16.0359   -8.7892    6.6259 H   0  0  0  0  0  0  0  0  0  0  0  0
   13.8641   -8.5656    5.5063 H   0  0  0  0  0  0  0  0  0  0  0  0
   15.1326   -8.1300    4.3458 H   0  0  0  0  0  0  0  0  0  0  0  0
    2.0669   -0.6343   -1.1519 H   0  0  0  0  0  0  0  0  0  0  0  0
  1  2  1  0  0  0  0
  1 64  1  0  0  0  0
  1 65  1  0  0  0  0
  1 66  1  0  0  0  0
  2  3  1  0  0  0  0
  3  4  1  0  0  0  0
  3 67  1  0  0  0  0
  3 68  1  0  0  0  0
  4  5  1  0  0  0  0
  4 69  1  0  0  0  0
  4 70  1  0  0  0  0
  5  6  1  0  0  0  0
  6  7  1  0  0  0  0
  6 71  1  0  0  0  0
  6 72  1  0  0  0  0
  7  8  1  0  0  0  0
  7 73  1  0  0  0  0
  7 74  1  0  0  0  0
  8  9  1  0  0  0  0
  9 10  1  0  0  0  0
  9 75  1  0  0  0  0
  9 76  1  0  0  0  0
 10 11  1  0  0  0  0
 10 77  1  0  0  0  0
 10 78  1  0  0  0  0
 11 12  1  0  0  0  0
 12 13  1  0  0  0  0
 12 17  2  0  0  0  0
 13 14  2  0  0  0  0
 13 79  1  0  0  0  0
 14 15  1  0  0  0  0
 14 56  1  0  0  0  0
 15 16  2  0  0  0  0
 15 20  1  0  0  0  0
 16 17  1  0  0  0  0
 16 80  1  0  0  0  0
 17 18  1  0  0  0  0
 18 19  1  0  0  0  0
 19 81  1  0  0  0  0
 19 82  1  0  0  0  0
 19 83  1  0  0  0  0
 20 21  1  0  0  0  0
 20 84  1  0  0  0  0
 20 85  1  0  0  0  0
 21 22  1  0  0  0  0
 21 55  1  0  0  0  0
 22 23  1  0  0  0  0
 22 86  1  0  0  0  0
 22 87  1  0  0  0  0
 23 24  1  0  0  0  0
 23 88  1  0  0  0  0
 23 89  1  0  0  0  0
 24 25  1  0  0  0  0
 24 54  2  0  0  0  0
 25 26  2  0  0  0  0
 25 90  1  0  0  0  0
 26 27  1  0  0  0  0
 26 91  1  0  0  0  0
 27 28  1  0  0  0  0
 27 53  2  0  0  0  0
 28 29  1  0  0  0  0
 28 92  1  0  0  0  0
 29 30  2  0  0  0  0
 29 31  1  0  0  0  0
 31 32  1  0  0  0  0
 31 52  2  0  0  0  0
 32 33  2  0  0  0  0
 32 93  1  0  0  0  0
 33 34  1  0  0  0  0
 33 94  1  0  0  0  0
 34 35  1  0  0  0  0
 34 38  2  0  0  0  0
 35 36  2  0  0  0  0
 35 37  1  0  0  0  0
 37 95  1  0  0  0  0
 38 39  1  0  0  0  0
 38 52  1  0  0  0  0
 39 40  1  0  0  0  0
 39 96  1  0  0  0  0
 40 41  2  0  0  0  0
 40 42  1  0  0  0  0
 42 43  1  0  0  0  0
 42 51  2  0  0  0  0
 43 44  2  0  0  0  0
 43 97  1  0  0  0  0
 44 45  1  0  0  0  0
 44 98  1  0  0  0  0
 45 46  1  0  0  0  0
 45 50  2  0  0  0  0
 46 47  2  0  0  0  0
 46 99  1  0  0  0  0
 47 48  1  0  0  0  0
 47100  1  0  0  0  0
 48 49  2  0  0  0  0
 48101  1  0  0  0  0
 49 50  1  0  0  0  0
 49102  1  0  0  0  0
 50 51  1  0  0  0  0
 52103  1  0  0  0  0
 53 54  1  0  0  0  0
 53104  1  0  0  0  0
 54105  1  0  0  0  0
 55 56  1  0  0  0  0
 55106  1  0  0  0  0
 55107  1  0  0  0  0
 56108  1  0  0  0  0
 56109  1  0  0  0  0
 57 58  2  0  0  0  0
 58 59  1  0  0  0  0
 58 60  1  0  0  0  0
 59110  1  0  0  0  0
 60 61  1  0  0  0  0
 60 62  1  0  0  0  0
 60 63  1  0  0  0  0
M  END
>  <Energy>
318.538

$$$$