101685684
  -OEChem-03242010103D

 44 45  0     0  0  0  0  0  0999 V2000
    2.2141    2.0981   -2.2524 Cl  0  0  0  0  0  0  0  0  0  0  0  0
    3.9914    0.0087    0.0087 O   0  0  0  0  0  0  0  0  0  0  0  0
    0.3413   -1.5812    1.8470 O   0  0  0  0  0  0  0  0  0  0  0  0
   -5.3930    1.0004   -1.2788 O   0  5  0  0  0  0  0  0  0  0  0  0
   -3.3810    1.5837   -1.9350 O   0  0  0  0  0  0  0  0  0  0  0  0
    1.9275   -0.9916   -0.3557 N   0  0  0  0  0  0  0  0  0  0  0  0
    0.5466   -0.8978   -0.3596 N   0  0  0  0  0  0  0  0  0  0  0  0
   -4.1443    0.8959   -1.2149 N   0  3  0  0  0  0  0  0  0  0  0  0
    2.4121   -2.3002   -0.7554 C   0  0  0  0  0  0  0  0  0  0  0  0
    1.2148   -3.2034   -1.0695 C   0  0  0  0  0  0  0  0  0  0  0  0
    3.2937   -2.1553   -2.0012 C   0  0  0  0  0  0  0  0  0  0  0  0
    3.2342   -2.9069    0.3876 C   0  0  0  0  0  0  0  0  0  0  0  0
    2.7628    0.0575   -0.0057 C   0  0  0  0  0  0  0  0  0  0  0  0
    2.1368    1.3400    0.3670 C   0  0  0  0  0  0  0  0  0  0  0  0
   -0.1601   -1.2129    0.7879 C   0  0  0  0  0  0  0  0  0  0  0  0
   -1.6353   -1.0710    0.6916 C   0  0  0  0  0  0  0  0  0  0  0  0
    1.8505    2.3239   -0.5793 C   0  0  0  0  0  0  0  0  0  0  0  0
    1.8305    1.5548    1.7110 C   0  0  0  0  0  0  0  0  0  0  0  0
   -2.1917   -0.1627   -0.2090 C   0  0  0  0  0  0  0  0  0  0  0  0
   -2.4645   -1.8462    1.5024 C   0  0  0  0  0  0  0  0  0  0  0  0
    1.2580    3.5227   -0.1820 C   0  0  0  0  0  0  0  0  0  0  0  0
    1.2378    2.7534    2.1083 C   0  0  0  0  0  0  0  0  0  0  0  0
   -3.5773   -0.0296   -0.2991 C   0  0  0  0  0  0  0  0  0  0  0  0
    0.9517    3.7374    1.1619 C   0  0  0  0  0  0  0  0  0  0  0  0
   -3.8501   -1.7129    1.4126 C   0  0  0  0  0  0  0  0  0  0  0  0
   -4.4066   -0.8048    0.5117 C   0  0  0  0  0  0  0  0  0  0  0  0
    1.5779   -4.1729   -1.4371 H   0  0  0  0  0  0  0  0  0  0  0  0
    3.5969   -3.1381   -2.3808 H   0  0  0  0  0  0  0  0  0  0  0  0
    4.2131   -1.5930   -1.8125 H   0  0  0  0  0  0  0  0  0  0  0  0
    0.6055   -3.4469   -0.1931 H   0  0  0  0  0  0  0  0  0  0  0  0
    3.5345   -3.9333    0.1458 H   0  0  0  0  0  0  0  0  0  0  0  0
    2.6579   -2.9445    1.3187 H   0  0  0  0  0  0  0  0  0  0  0  0
    4.1531   -2.3509    0.5957 H   0  0  0  0  0  0  0  0  0  0  0  0
    2.7554   -1.6412   -2.8062 H   0  0  0  0  0  0  0  0  0  0  0  0
    0.5728   -2.8125   -1.8682 H   0  0  0  0  0  0  0  0  0  0  0  0
    0.1316   -0.6168   -1.2414 H   0  0  0  0  0  0  0  0  0  0  0  0
    2.0506    0.7974    2.4590 H   0  0  0  0  0  0  0  0  0  0  0  0
   -1.5493    0.4675   -0.8175 H   0  0  0  0  0  0  0  0  0  0  0  0
   -2.0498   -2.5624    2.2068 H   0  0  0  0  0  0  0  0  0  0  0  0
    1.0283    4.2995   -0.9069 H   0  0  0  0  0  0  0  0  0  0  0  0
    0.9993    2.9207    3.1546 H   0  0  0  0  0  0  0  0  0  0  0  0
    0.4902    4.6705    1.4714 H   0  0  0  0  0  0  0  0  0  0  0  0
   -4.4956   -2.3173    2.0433 H   0  0  0  0  0  0  0  0  0  0  0  0
   -5.4900   -0.7282    0.4689 H   0  0  0  0  0  0  0  0  0  0  0  0
  1 17  1  0  0  0  0
  2 13  2  0  0  0  0
  3 15  2  0  0  0  0
  4  8  1  0  0  0  0
  5  8  2  0  0  0  0
  6  7  1  0  0  0  0
  6  9  1  0  0  0  0
  6 13  1  0  0  0  0
  7 15  1  0  0  0  0
  7 36  1  0  0  0  0
  8 23  1  0  0  0  0
  9 10  1  0  0  0  0
  9 11  1  0  0  0  0
  9 12  1  0  0  0  0
 10 27  1  0  0  0  0
 10 30  1  0  0  0  0
 10 35  1  0  0  0  0
 11 28  1  0  0  0  0
 11 29  1  0  0  0  0
 11 34  1  0  0  0  0
 12 31  1  0  0  0  0
 12 32  1  0  0  0  0
 12 33  1  0  0  0  0
 13 14  1  0  0  0  0
 14 17  1  0  0  0  0
 14 18  2  0  0  0  0
 15 16  1  0  0  0  0
 16 19  2  0  0  0  0
 16 20  1  0  0  0  0
 17 21  2  0  0  0  0
 18 22  1  0  0  0  0
 18 37  1  0  0  0  0
 19 23  1  0  0  0  0
 19 38  1  0  0  0  0
 20 25  2  0  0  0  0
 20 39  1  0  0  0  0
 21 24  1  0  0  0  0
 21 40  1  0  0  0  0
 22 24  2  0  0  0  0
 22 41  1  0  0  0  0
 23 26  2  0  0  0  0
 24 42  1  0  0  0  0
 25 26  1  0  0  0  0
 25 43  1  0  0  0  0
 26 44  1  0  0  0  0
M  CHG  2   4  -1   8   1
M  END
> <PUBCHEM_COMPOUND_CID>
101685684

> <PUBCHEM_CONFORMER_RMSD>
0.8

> <PUBCHEM_CONFORMER_DIVERSEORDER>
1
45
46
17
37
39
26
35
41
43
8
34
36
38
32
29
23
21
40
31
5
42
47
28
22
19
44
48
27
18
30
20
33
25
24
7
6
2
10
12
16
11
9
14
15
13
4
3

> <PUBCHEM_MMFF94_PARTIAL_CHARGES>
32
1 -0.18
13 0.54
14 0.09
15 0.54
16 0.09
17 0.18
18 -0.15
19 -0.15
2 -0.57
20 -0.15
21 -0.15
22 -0.15
23 0.13
24 -0.15
25 -0.15
26 -0.15
3 -0.57
36 0.37
37 0.15
38 0.15
39 0.15
4 -0.52
40 0.15
41 0.15
42 0.15
43 0.15
44 0.15
5 -0.52
6 -0.36
7 -0.43
8 0.91
9 0.3

> <PUBCHEM_EFFECTIVE_ROTOR_COUNT>
7

> <PUBCHEM_PHARMACOPHORE_FEATURES>
9
1 2 acceptor
1 3 acceptor
1 4 acceptor
1 4 anion
1 5 acceptor
1 7 donor
4 9 10 11 12 hydrophobe
6 14 17 18 21 22 24 rings
6 16 19 20 23 25 26 rings

> <PUBCHEM_HEAVY_ATOM_COUNT>
26

> <PUBCHEM_ATOM_DEF_STEREO_COUNT>
0

> <PUBCHEM_ATOM_UDEF_STEREO_COUNT>
0

> <PUBCHEM_BOND_DEF_STEREO_COUNT>
0

> <PUBCHEM_BOND_UDEF_STEREO_COUNT>
0

> <PUBCHEM_ISOTOPIC_ATOM_COUNT>
0

> <PUBCHEM_COMPONENT_COUNT>
1

> <PUBCHEM_CACTVS_TAUTO_COUNT>
2

> <PUBCHEM_CONFORMER_ID>
060F99B400000001

> <PUBCHEM_MMFF94_ENERGY>
88.9077

> <PUBCHEM_FEATURE_SELFOVERLAP>
45.753

> <PUBCHEM_SHAPE_FINGERPRINT>
10165383 225 17547039740550479752
10764073 3 17830971864304824048
10930396 42 18051096296005462450
12156800 1 17255928227416671904
12293681 4 18121780521813385335
12788726 201 17834392315723796082
13134695 92 18272926094632346948
13402501 40 18334006216223986853
13583140 156 18411419553097454023
13681431 1 18271539614865045458
13911987 19 18124348036653128878
14251757 17 18187647946885668621
14866123 147 16462765716122413931
151778 21 18123203556216382225
15210252 30 17969229936527636604
15806764 133 18335152985645686283
17138139 8 16901269718075917205
17357779 13 18200038313760461278
20567600 299 18272927228525208561
20600515 1 17897706696587425728
21860390 5 18413669106151983949
22289505 5 18410569548481974132
22620623 9 17051931463414046806
23419403 2 17836887198365535456
23557571 272 17968660540324000283
23559900 14 18261108565348332623
238 59 18270402835515670775
3380486 77 17823983321138299322
350125 39 17622453061788843306
46194498 28 18189632694259746575
495365 180 18128528456654093401
508706 21 17967803943377131589
5252454 2 17621331555122166561
5281201 14 18409173220739823455
5969126 39 17842006490282359790
6287921 2 18123480629062455095
6438718 38 17125368931026668513
7399639 24 17834114521823773563
7808743 9 16968022718297242136
81228 2 17762631590078237426

> <PUBCHEM_SHAPE_MULTIPOLES>
498.52
7.79
4.42
1.98
10.47
1.32
0.26
-0.91
2.24
-4.28
-0.15
0.05
0.71
2.25

> <PUBCHEM_SHAPE_SELFOVERLAP>
1055.281

> <PUBCHEM_SHAPE_VOLUME>
280.5

> <PUBCHEM_COORDINATE_TYPE>
2
5
10

$$$$