4507
  -OEChem-03242010103D

 46 47  0     1  0  0  0  0  0999 V2000
    1.9940    2.0443    0.3918 O   0  0  0  0  0  0  0  0  0  0  0  0
   -3.7843   -0.4647    1.2725 O   0  0  0  0  0  0  0  0  0  0  0  0
    0.4889    3.3819    1.5340 O   0  0  0  0  0  0  0  0  0  0  0  0
   -2.6297   -2.2540    0.3645 O   0  0  0  0  0  0  0  0  0  0  0  0
    3.2562   -3.4915   -1.2831 O   0  5  0  0  0  0  0  0  0  0  0  0
    2.0310   -2.1790   -2.5534 O   0  0  0  0  0  0  0  0  0  0  0  0
   -1.6804    1.5307   -1.9155 N   0  0  0  0  0  0  0  0  0  0  0  0
    2.3832   -2.6025   -1.4266 N   0  3  0  0  0  0  0  0  0  0  0  0
   -0.8465    0.5338    0.6021 C   0  0  1  0  0  0  0  0  0  0  0  0
   -0.2407    1.7802   -0.0534 C   0  0  0  0  0  0  0  0  0  0  0  0
   -2.0534   -0.0166   -0.1643 C   0  0  0  0  0  0  0  0  0  0  0  0
    0.2021   -0.5326    0.7402 C   0  0  0  0  0  0  0  0  0  0  0  0
   -0.6627    2.2101   -1.2644 C   0  0  0  0  0  0  0  0  0  0  0  0
   -2.3963    0.4739   -1.3768 C   0  0  0  0  0  0  0  0  0  0  0  0
    0.7965   -1.0639   -0.3980 C   0  0  0  0  0  0  0  0  0  0  0  0
    0.7682    2.5118    0.7300 C   0  0  0  0  0  0  0  0  0  0  0  0
    0.5662   -0.9777    2.0055 C   0  0  0  0  0  0  0  0  0  0  0  0
   -0.1111    3.3947   -2.0107 C   0  0  0  0  0  0  0  0  0  0  0  0
   -3.5276   -0.0282   -2.2327 C   0  0  0  0  0  0  0  0  0  0  0  0
   -2.8395   -1.0637    0.5083 C   0  0  0  0  0  0  0  0  0  0  0  0
    1.7695   -2.0549   -0.2693 C   0  0  0  0  0  0  0  0  0  0  0  0
    1.5392   -1.9687    2.1343 C   0  0  0  0  0  0  0  0  0  0  0  0
    2.1409   -2.5073    0.9969 C   0  0  0  0  0  0  0  0  0  0  0  0
    3.0890    2.6624    1.0755 C   0  0  0  0  0  0  0  0  0  0  0  0
   -4.6360   -1.3590    1.9963 C   0  0  0  0  0  0  0  0  0  0  0  0
    4.3835    2.0407    0.5965 C   0  0  0  0  0  0  0  0  0  0  0  0
   -1.2101    0.8422    1.5930 H   0  0  0  0  0  0  0  0  0  0  0  0
   -1.9660    1.8749   -2.8254 H   0  0  0  0  0  0  0  0  0  0  0  0
    0.5001   -0.7038   -1.3797 H   0  0  0  0  0  0  0  0  0  0  0  0
    0.1059   -0.5672    2.8998 H   0  0  0  0  0  0  0  0  0  0  0  0
   -0.9013    4.1331   -2.1843 H   0  0  0  0  0  0  0  0  0  0  0  0
    0.2851    3.0783   -2.9816 H   0  0  0  0  0  0  0  0  0  0  0  0
    0.6984    3.8980   -1.4745 H   0  0  0  0  0  0  0  0  0  0  0  0
   -4.2568    0.7713   -2.4024 H   0  0  0  0  0  0  0  0  0  0  0  0
   -4.0605   -0.8712   -1.7840 H   0  0  0  0  0  0  0  0  0  0  0  0
   -3.1470   -0.3605   -3.2045 H   0  0  0  0  0  0  0  0  0  0  0  0
    1.8282   -2.3205    3.1204 H   0  0  0  0  0  0  0  0  0  0  0  0
    2.8952   -3.2775    1.1362 H   0  0  0  0  0  0  0  0  0  0  0  0
    3.0931    3.7372    0.8622 H   0  0  0  0  0  0  0  0  0  0  0  0
    2.9804    2.5058    2.1546 H   0  0  0  0  0  0  0  0  0  0  0  0
   -5.3483   -0.7602    2.5702 H   0  0  0  0  0  0  0  0  0  0  0  0
   -4.0461   -1.9646    2.6911 H   0  0  0  0  0  0  0  0  0  0  0  0
   -5.1919   -1.9971    1.3026 H   0  0  0  0  0  0  0  0  0  0  0  0
    5.2436    2.4894    1.1011 H   0  0  0  0  0  0  0  0  0  0  0  0
    4.3850    0.9619    0.7853 H   0  0  0  0  0  0  0  0  0  0  0  0
    4.4979    2.1738   -0.4843 H   0  0  0  0  0  0  0  0  0  0  0  0
  1 16  1  0  0  0  0
  1 24  1  0  0  0  0
  2 20  1  0  0  0  0
  2 25  1  0  0  0  0
  3 16  2  0  0  0  0
  4 20  2  0  0  0  0
  5  8  1  0  0  0  0
  6  8  2  0  0  0  0
  7 13  1  0  0  0  0
  7 14  1  0  0  0  0
  7 28  1  0  0  0  0
  8 21  1  0  0  0  0
  9 10  1  0  0  0  0
  9 11  1  0  0  0  0
  9 12  1  0  0  0  0
  9 27  1  0  0  0  0
 10 13  2  0  0  0  0
 10 16  1  0  0  0  0
 11 14  2  0  0  0  0
 11 20  1  0  0  0  0
 12 15  2  0  0  0  0
 12 17  1  0  0  0  0
 13 18  1  0  0  0  0
 14 19  1  0  0  0  0
 15 21  1  0  0  0  0
 15 29  1  0  0  0  0
 17 22  2  0  0  0  0
 17 30  1  0  0  0  0
 18 31  1  0  0  0  0
 18 32  1  0  0  0  0
 18 33  1  0  0  0  0
 19 34  1  0  0  0  0
 19 35  1  0  0  0  0
 19 36  1  0  0  0  0
 21 23  2  0  0  0  0
 22 23  1  0  0  0  0
 22 37  1  0  0  0  0
 23 38  1  0  0  0  0
 24 26  1  0  0  0  0
 24 39  1  0  0  0  0
 24 40  1  0  0  0  0
 25 41  1  0  0  0  0
 25 42  1  0  0  0  0
 25 43  1  0  0  0  0
 26 44  1  0  0  0  0
 26 45  1  0  0  0  0
 26 46  1  0  0  0  0
M  CHG  2   5  -1   8   1
M  END
> <PUBCHEM_COMPOUND_CID>
4507

> <PUBCHEM_CONFORMER_RMSD>
0.8

> <PUBCHEM_CONFORMER_DIVERSEORDER>
1
39
36
57
58
41
61
60
59
6
42
53
47
37
25
35
51
50
32
55
22
46
12
52
56
19
21
45
14
27
49
34
40
30
26
24
17
33
31
54
28
48
16
4
44
7
20
43
15
13
38
3
23
8
18
29
2
5
11
10
9

> <PUBCHEM_MMFF94_PARTIAL_CHARGES>
30
1 -0.43
10 -0.12
11 -0.12
12 -0.14
13 -0.04
14 -0.04
15 -0.15
16 0.71
17 -0.15
18 0.14
19 0.14
2 -0.43
20 0.71
21 0.13
22 -0.15
23 -0.15
24 0.28
25 0.28
28 0.4
29 0.15
3 -0.57
30 0.15
37 0.15
38 0.15
4 -0.57
5 -0.52
6 -0.52
7 -0.6
8 0.91
9 0.42

> <PUBCHEM_EFFECTIVE_ROTOR_COUNT>
7.4

> <PUBCHEM_PHARMACOPHORE_FEATURES>
9
1 3 acceptor
1 4 acceptor
1 5 acceptor
1 5 anion
1 6 acceptor
1 7 cation
1 7 donor
6 12 15 17 21 22 23 rings
6 7 9 10 11 13 14 rings

> <PUBCHEM_HEAVY_ATOM_COUNT>
26

> <PUBCHEM_ATOM_DEF_STEREO_COUNT>
0

> <PUBCHEM_ATOM_UDEF_STEREO_COUNT>
1

> <PUBCHEM_BOND_DEF_STEREO_COUNT>
0

> <PUBCHEM_BOND_UDEF_STEREO_COUNT>
0

> <PUBCHEM_ISOTOPIC_ATOM_COUNT>
0

> <PUBCHEM_COMPONENT_COUNT>
1

> <PUBCHEM_CACTVS_TAUTO_COUNT>
3

> <PUBCHEM_CONFORMER_ID>
0000119B00000001

> <PUBCHEM_MMFF94_ENERGY>
70.6596

> <PUBCHEM_FEATURE_SELFOVERLAP>
45.751

> <PUBCHEM_SHAPE_FINGERPRINT>
11488393 25 18412536626772462018
11578080 2 17531795866619132349
12160290 23 17617370684984241457
13140716 1 17968643918509986073
13149001 5 17832120750417795764
13681431 1 18270386218266201104
16945 1 18198896088382486601
1813 80 17702397147262856887
19930381 70 18201728387944867260
20600515 1 16823001026139426480
20905425 154 18189314849742715848
22182313 1 18113893875716220895
23419403 2 18337963302589844517
23559900 14 17681801087066988650
2748010 2 18041826381683710507
465052 167 16953096715200959521
5262128 65 17911782588722246540
576247 118 18198630938671374371
59755656 215 18190734435455629491
81228 2 17478591426563916704
84936 31 18129115565787933423

> <PUBCHEM_SHAPE_MULTIPOLES>
489.89
6.01
4.43
2.36
2.51
0.48
0.7
-1.14
-1.36
-4.02
0.94
0.39
-0.63
2.72

> <PUBCHEM_SHAPE_SELFOVERLAP>
1037.827

> <PUBCHEM_SHAPE_VOLUME>
274.7

> <PUBCHEM_COORDINATE_TYPE>
2
5
10

$$$$