9833643
  -OEChem-03242010103D

 66 68  0     1  0  0  0  0  0999 V2000
    6.6100    0.9281   -1.7234 O   0  0  0  0  0  0  0  0  0  0  0  0
    6.5204    3.0001    0.1301 O   0  0  0  0  0  0  0  0  0  0  0  0
   -7.9484   -0.4459   -1.1015 O   0  0  0  0  0  0  0  0  0  0  0  0
   -8.4885    1.3605    0.9403 O   0  0  0  0  0  0  0  0  0  0  0  0
   -1.2104   -1.2647   -0.0186 N   0  0  2  0  0  0  0  0  0  0  0  0
    4.0748   -3.2781    2.1124 N   0  0  0  0  0  0  0  0  0  0  0  0
    3.1014   -1.4683    0.4609 C   0  0  1  0  0  0  0  0  0  0  0  0
    3.3352   -1.8939   -1.0135 C   0  0  0  0  0  0  0  0  0  0  0  0
    3.9200   -0.2001    0.5090 C   0  0  0  0  0  0  0  0  0  0  0  0
    1.6133   -1.2508    0.7393 C   0  0  0  0  0  0  0  0  0  0  0  0
    4.7275   -1.3756   -1.4114 C   0  0  0  0  0  0  0  0  0  0  0  0
    4.8336   -0.1537   -0.5551 C   0  0  0  0  0  0  0  0  0  0  0  0
    0.8172   -2.5335    0.5172 C   0  0  0  0  0  0  0  0  0  0  0  0
    3.8774    0.8247    1.4443 C   0  0  0  0  0  0  0  0  0  0  0  0
    5.7181    0.9030   -0.6987 C   0  0  0  0  0  0  0  0  0  0  0  0
   -0.6625   -2.3167    0.8295 C   0  0  0  0  0  0  0  0  0  0  0  0
    3.6464   -2.4816    1.3856 C   0  0  0  0  0  0  0  0  0  0  0  0
    5.6716    1.9383    0.2360 C   0  0  0  0  0  0  0  0  0  0  0  0
    4.7577    1.8998    1.2996 C   0  0  0  0  0  0  0  0  0  0  0  0
   -2.6028   -0.9876    0.3382 C   0  0  0  0  0  0  0  0  0  0  0  0
   -1.1130   -1.6383   -1.4308 C   0  0  0  0  0  0  0  0  0  0  0  0
   -3.1508    0.1906   -0.4678 C   0  0  0  0  0  0  0  0  0  0  0  0
    6.1903    1.5514   -2.9375 C   0  0  0  0  0  0  0  0  0  0  0  0
   -4.5782    0.5010   -0.0935 C   0  0  0  0  0  0  0  0  0  0  0  0
    7.7756    2.8941    0.7977 C   0  0  0  0  0  0  0  0  0  0  0  0
   -5.6115   -0.1226   -0.7762 C   0  0  0  0  0  0  0  0  0  0  0  0
   -4.8336    1.4049    0.9265 C   0  0  0  0  0  0  0  0  0  0  0  0
   -6.9320    0.1645   -0.4305 C   0  0  0  0  0  0  0  0  0  0  0  0
   -6.1542    1.6920    1.2721 C   0  0  0  0  0  0  0  0  0  0  0  0
   -7.2034    1.0719    0.5936 C   0  0  0  0  0  0  0  0  0  0  0  0
   -7.5860   -1.3601   -2.1345 C   0  0  0  0  0  0  0  0  0  0  0  0
   -9.1151    2.4467    0.2607 C   0  0  0  0  0  0  0  0  0  0  0  0
    2.5958   -1.4115   -1.6696 H   0  0  0  0  0  0  0  0  0  0  0  0
    3.2572   -2.9747   -1.1794 H   0  0  0  0  0  0  0  0  0  0  0  0
    1.2405   -0.4443    0.0952 H   0  0  0  0  0  0  0  0  0  0  0  0
    1.4647   -0.9103    1.7734 H   0  0  0  0  0  0  0  0  0  0  0  0
    5.5106   -2.0930   -1.1452 H   0  0  0  0  0  0  0  0  0  0  0  0
    4.7715   -1.1553   -2.4810 H   0  0  0  0  0  0  0  0  0  0  0  0
    1.1666   -3.3083    1.2115 H   0  0  0  0  0  0  0  0  0  0  0  0
    0.9679   -2.9605   -0.4775 H   0  0  0  0  0  0  0  0  0  0  0  0
    3.1834    0.7992    2.2776 H   0  0  0  0  0  0  0  0  0  0  0  0
   -1.2054   -3.2619    0.6988 H   0  0  0  0  0  0  0  0  0  0  0  0
   -0.7584   -2.0353    1.8860 H   0  0  0  0  0  0  0  0  0  0  0  0
    4.7326    2.7095    2.0247 H   0  0  0  0  0  0  0  0  0  0  0  0
   -2.6610   -0.7363    1.4057 H   0  0  0  0  0  0  0  0  0  0  0  0
   -3.2316   -1.8762    0.1894 H   0  0  0  0  0  0  0  0  0  0  0  0
   -1.7016   -2.5330   -1.6648 H   0  0  0  0  0  0  0  0  0  0  0  0
   -1.4295   -0.8316   -2.0972 H   0  0  0  0  0  0  0  0  0  0  0  0
   -0.0831   -1.8134   -1.7529 H   0  0  0  0  0  0  0  0  0  0  0  0
   -3.1435    0.0067   -1.5468 H   0  0  0  0  0  0  0  0  0  0  0  0
   -2.5285    1.0819   -0.3110 H   0  0  0  0  0  0  0  0  0  0  0  0
    6.9823    1.4212   -3.6800 H   0  0  0  0  0  0  0  0  0  0  0  0
    5.2737    1.0910   -3.3184 H   0  0  0  0  0  0  0  0  0  0  0  0
    6.0323    2.6227   -2.7787 H   0  0  0  0  0  0  0  0  0  0  0  0
    8.3406    3.8118    0.6130 H   0  0  0  0  0  0  0  0  0  0  0  0
    8.3488    2.0463    0.4093 H   0  0  0  0  0  0  0  0  0  0  0  0
    7.6281    2.7852    1.8769 H   0  0  0  0  0  0  0  0  0  0  0  0
   -5.3381   -0.8205   -1.5599 H   0  0  0  0  0  0  0  0  0  0  0  0
   -4.0233    1.8913    1.4619 H   0  0  0  0  0  0  0  0  0  0  0  0
   -6.3582    2.3989    2.0718 H   0  0  0  0  0  0  0  0  0  0  0  0
   -7.0332   -2.2187   -1.7384 H   0  0  0  0  0  0  0  0  0  0  0  0
   -8.5166   -1.7508   -2.5595 H   0  0  0  0  0  0  0  0  0  0  0  0
   -7.0517   -0.8584   -2.9485 H   0  0  0  0  0  0  0  0  0  0  0  0
   -8.5777    3.3807    0.4537 H   0  0  0  0  0  0  0  0  0  0  0  0
   -9.1595    2.2539   -0.8158 H   0  0  0  0  0  0  0  0  0  0  0  0
  -10.1356    2.5456    0.6406 H   0  0  0  0  0  0  0  0  0  0  0  0
  1 15  1  0  0  0  0
  1 23  1  0  0  0  0
  2 18  1  0  0  0  0
  2 25  1  0  0  0  0
  3 28  1  0  0  0  0
  3 31  1  0  0  0  0
  4 30  1  0  0  0  0
  4 32  1  0  0  0  0
  5 16  1  0  0  0  0
  5 20  1  0  0  0  0
  5 21  1  0  0  0  0
  6 17  3  0  0  0  0
  7  8  1  0  0  0  0
  7  9  1  0  0  0  0
  7 10  1  0  0  0  0
  7 17  1  0  0  0  0
  8 11  1  0  0  0  0
  8 33  1  0  0  0  0
  8 34  1  0  0  0  0
  9 12  2  0  0  0  0
  9 14  1  0  0  0  0
 10 13  1  0  0  0  0
 10 35  1  0  0  0  0
 10 36  1  0  0  0  0
 11 12  1  0  0  0  0
 11 37  1  0  0  0  0
 11 38  1  0  0  0  0
 12 15  1  0  0  0  0
 13 16  1  0  0  0  0
 13 39  1  0  0  0  0
 13 40  1  0  0  0  0
 14 19  2  0  0  0  0
 14 41  1  0  0  0  0
 15 18  2  0  0  0  0
 16 42  1  0  0  0  0
 16 43  1  0  0  0  0
 18 19  1  0  0  0  0
 19 44  1  0  0  0  0
 20 22  1  0  0  0  0
 20 45  1  0  0  0  0
 20 46  1  0  0  0  0
 21 47  1  0  0  0  0
 21 48  1  0  0  0  0
 21 49  1  0  0  0  0
 22 24  1  0  0  0  0
 22 50  1  0  0  0  0
 22 51  1  0  0  0  0
 23 52  1  0  0  0  0
 23 53  1  0  0  0  0
 23 54  1  0  0  0  0
 24 26  2  0  0  0  0
 24 27  1  0  0  0  0
 25 55  1  0  0  0  0
 25 56  1  0  0  0  0
 25 57  1  0  0  0  0
 26 28  1  0  0  0  0
 26 58  1  0  0  0  0
 27 29  2  0  0  0  0
 27 59  1  0  0  0  0
 28 30  2  0  0  0  0
 29 30  1  0  0  0  0
 29 60  1  0  0  0  0
 31 61  1  0  0  0  0
 31 62  1  0  0  0  0
 31 63  1  0  0  0  0
 32 64  1  0  0  0  0
 32 65  1  0  0  0  0
 32 66  1  0  0  0  0
M  END
> <PUBCHEM_COMPOUND_CID>
9833643

> <PUBCHEM_CONFORMER_RMSD>
1.2

> <PUBCHEM_CONFORMER_DIVERSEORDER>
10
93
141
130
384
72
57
317
18
125
162
27
308
23
407
446
28
294
132
419
173
498
5
523
105
92
37
136
356
32
126
55
379
109
265
155
169
333
43
420
200
163
4
219
327
25
138
388
164
15
428
374
320
61
453
546
541
113
319
286
198
71
47
218
11
257
68
460
85
8
525
100
565
59
185
487
497
509
145
170
353
106
233
216
148
161
230
408
21
70
427
306
147
50
411
74
368
76
160
309
149
16
123
414
124
205
3
560
373
277
94
467
54
409
41
99
495
563
110
241
137
231
7
232
13
339
49
80
224
290
328
51
285
484
1
19
30
399
6
242
252
416
34
375
415
246
20
322
95
56
500
101
208
39
118
281
88
486
31
527
235
193
2
361
382
172
237
127
272
313
67
354
485
120
38
530
537
153
97
350
98
519
343
376
392
115
251
492
293
424
490
335
512
64
222
423
448

> <PUBCHEM_MMFF94_PARTIAL_CHARGES>
34
1 -0.36
11 0.14
12 -0.14
14 -0.15
15 0.08
16 0.27
17 0.36
18 0.08
19 -0.15
2 -0.36
20 0.27
21 0.27
22 0.14
23 0.28
24 -0.14
25 0.28
26 -0.15
27 -0.15
28 0.08
29 -0.15
3 -0.36
30 0.08
31 0.28
32 0.28
4 -0.36
41 0.15
44 0.15
5 -0.81
58 0.15
59 0.15
6 -0.56
60 0.15
7 0.34
9 -0.14

> <PUBCHEM_EFFECTIVE_ROTOR_COUNT>
11.6

> <PUBCHEM_PHARMACOPHORE_FEATURES>
9
1 1 acceptor
1 2 acceptor
1 3 acceptor
1 4 acceptor
1 5 cation
1 6 acceptor
5 7 8 9 11 12 rings
6 24 26 27 28 29 30 rings
6 9 12 14 15 18 19 rings

> <PUBCHEM_HEAVY_ATOM_COUNT>
32

> <PUBCHEM_ATOM_DEF_STEREO_COUNT>
0

> <PUBCHEM_ATOM_UDEF_STEREO_COUNT>
1

> <PUBCHEM_BOND_DEF_STEREO_COUNT>
0

> <PUBCHEM_BOND_UDEF_STEREO_COUNT>
0

> <PUBCHEM_ISOTOPIC_ATOM_COUNT>
0

> <PUBCHEM_COMPONENT_COUNT>
1

> <PUBCHEM_CACTVS_TAUTO_COUNT>
1

> <PUBCHEM_CONFORMER_ID>
00960CAB0000000A

> <PUBCHEM_MMFF94_ENERGY>
127.3139

> <PUBCHEM_FEATURE_SELFOVERLAP>
45.763

> <PUBCHEM_SHAPE_FINGERPRINT>
10 15 16298391270611093055
10454371 7 18130787902174288175
11273773 42 18342451586601019437
11478447 147 16557891481387315456
1200032 147 18187365450413636930
12047536 79 15647318720272615006
12522641 24 17970348113978071931
12539765 74 18130229251525646919
14216079 64 9943807768443538633
14394314 77 18413110546547728297
14537116 161 17703506610540886809
14565420 104 18040153989600653123
14849402 71 18411981395313316569
15183329 4 16702307832410846177
15188451 53 8214147339133311038
1577012 14 18343298155178748279
16096371 109 17168133503855233106
16992752 21 17916857059093580199
17899979 129 18272375274241699470
19304671 126 18059582421052891560
2026 5 10015594882621858797
20691028 202 18334863817971091669
21033648 29 18114467868210252594
21772528 278 18408604773476846311
23081809 10 18340760465051708979
23569943 247 9943539509472134277
24771293 8 18334572473391877757
249057 25 18198898124460885547
3918712 181 18411131450538014457
394071 54 17676213484854072660
397830 11 16805619087486727299
3986486 107 17988375840430222284
406291 66 9799421000895947636
4073 2 18409731785716700427
444735 82 18187650146584586341
5372103 7 16199007600942307448
54583773 228 18412821397059545309
5718773 13 9367353625905061672
5758199 1 18335422361957993307
59682541 52 17274553053091662454
6712543 237 13767923550380707065
9689198 14 18201443588462957517
9849439 229 18114179796084732050
9962374 69 18189318105286690074
9980921 177 18263342786678346296

> <PUBCHEM_SHAPE_MULTIPOLES>
625.11
28.4
3.32
1.86
42.69
0.03
0.87
22.43
4.9
-4.34
-1.15
-2.08
-0.28
-2.96

> <PUBCHEM_SHAPE_SELFOVERLAP>
1317

> <PUBCHEM_SHAPE_VOLUME>
354.4

> <PUBCHEM_COORDINATE_TYPE>
2
5
10

$$$$