162558
  -OEChem-03242010103D

 48 51  0     1  0  0  0  0  0999 V2000
   -5.3651    2.3114    0.0099 Cl  0  0  0  0  0  0  0  0  0  0  0  0
    2.5934   -2.6932   -0.0473 O   0  0  0  0  0  0  0  0  0  0  0  0
    0.8187   -1.1987   -0.0272 N   0  0  0  0  0  0  0  0  0  0  0  0
   -3.3192   -2.6419   -0.6274 N   0  0  0  0  0  0  0  0  0  0  0  0
    0.3568    0.0844   -0.0087 N   0  0  0  0  0  0  0  0  0  0  0  0
   -0.2179   -2.2116   -0.0441 C   0  0  1  0  0  0  0  0  0  0  0  0
   -1.0481   -2.1277    1.2432 C   0  0  0  0  0  0  0  0  0  0  0  0
   -1.0301   -2.0885   -1.3385 C   0  0  0  0  0  0  0  0  0  0  0  0
   -1.9677   -3.3327    1.4259 C   0  0  0  0  0  0  0  0  0  0  0  0
   -2.2092   -3.0512   -1.4760 C   0  0  0  0  0  0  0  0  0  0  0  0
   -3.3145   -3.2207    0.7110 C   0  0  0  0  0  0  0  0  0  0  0  0
    2.1673   -1.5403   -0.0305 C   0  0  0  0  0  0  0  0  0  0  0  0
    1.2001    1.0669    0.0083 C   0  0  0  0  0  0  0  0  0  0  0  0
    3.1319   -0.4262   -0.0106 C   0  0  0  0  0  0  0  0  0  0  0  0
    2.6611    0.8816    0.0093 C   0  0  0  0  0  0  0  0  0  0  0  0
    0.6350    2.4677    0.0286 C   0  0  0  0  0  0  0  0  0  0  0  0
    4.5086   -0.6773   -0.0111 C   0  0  0  0  0  0  0  0  0  0  0  0
    3.5623    1.9500    0.0292 C   0  0  0  0  0  0  0  0  0  0  0  0
   -0.8603    2.4297    0.0241 C   0  0  0  0  0  0  0  0  0  0  0  0
    5.4080    0.3886    0.0089 C   0  0  0  0  0  0  0  0  0  0  0  0
    4.9354    1.6996    0.0289 C   0  0  0  0  0  0  0  0  0  0  0  0
   -1.5564    2.3933    1.2296 C   0  0  0  0  0  0  0  0  0  0  0  0
   -1.5499    2.4298   -1.1860 C   0  0  0  0  0  0  0  0  0  0  0  0
   -2.9508    2.3567    1.2254 C   0  0  0  0  0  0  0  0  0  0  0  0
   -2.9444    2.3933   -1.1904 C   0  0  0  0  0  0  0  0  0  0  0  0
   -3.6449    2.3569    0.0153 C   0  0  0  0  0  0  0  0  0  0  0  0
    0.2665   -3.1961   -0.0601 H   0  0  0  0  0  0  0  0  0  0  0  0
   -1.6231   -1.1946    1.2930 H   0  0  0  0  0  0  0  0  0  0  0  0
   -0.3562   -2.1047    2.0962 H   0  0  0  0  0  0  0  0  0  0  0  0
   -0.3519   -2.2579   -2.1862 H   0  0  0  0  0  0  0  0  0  0  0  0
   -1.4016   -1.0627   -1.4677 H   0  0  0  0  0  0  0  0  0  0  0  0
   -1.4525   -4.2489    1.1118 H   0  0  0  0  0  0  0  0  0  0  0  0
   -2.1719   -3.4564    2.4972 H   0  0  0  0  0  0  0  0  0  0  0  0
   -2.5538   -2.9939   -2.5160 H   0  0  0  0  0  0  0  0  0  0  0  0
   -1.9139   -4.0942   -1.3128 H   0  0  0  0  0  0  0  0  0  0  0  0
   -3.9856   -2.6109    1.3277 H   0  0  0  0  0  0  0  0  0  0  0  0
   -3.7651   -4.2204    0.6722 H   0  0  0  0  0  0  0  0  0  0  0  0
   -4.2031   -2.8770   -1.0787 H   0  0  0  0  0  0  0  0  0  0  0  0
    0.9988    3.0209   -0.8456 H   0  0  0  0  0  0  0  0  0  0  0  0
    0.9941    2.9933    0.9215 H   0  0  0  0  0  0  0  0  0  0  0  0
    4.8991   -1.6910   -0.0264 H   0  0  0  0  0  0  0  0  0  0  0  0
    3.2280    2.9826    0.0451 H   0  0  0  0  0  0  0  0  0  0  0  0
    6.4770    0.1969    0.0087 H   0  0  0  0  0  0  0  0  0  0  0  0
    5.6373    2.5285    0.0444 H   0  0  0  0  0  0  0  0  0  0  0  0
   -1.0268    2.3900    2.1785 H   0  0  0  0  0  0  0  0  0  0  0  0
   -1.0152    2.4552   -2.1317 H   0  0  0  0  0  0  0  0  0  0  0  0
   -3.4833    2.3271    2.1726 H   0  0  0  0  0  0  0  0  0  0  0  0
   -3.4718    2.3925   -2.1409 H   0  0  0  0  0  0  0  0  0  0  0  0
  1 26  1  0  0  0  0
  2 12  2  0  0  0  0
  3  5  1  0  0  0  0
  3  6  1  0  0  0  0
  3 12  1  0  0  0  0
  4 10  1  0  0  0  0
  4 11  1  0  0  0  0
  4 38  1  0  0  0  0
  5 13  2  0  0  0  0
  6  7  1  0  0  0  0
  6  8  1  0  0  0  0
  6 27  1  0  0  0  0
  7  9  1  0  0  0  0
  7 28  1  0  0  0  0
  7 29  1  0  0  0  0
  8 10  1  0  0  0  0
  8 30  1  0  0  0  0
  8 31  1  0  0  0  0
  9 11  1  0  0  0  0
  9 32  1  0  0  0  0
  9 33  1  0  0  0  0
 10 34  1  0  0  0  0
 10 35  1  0  0  0  0
 11 36  1  0  0  0  0
 11 37  1  0  0  0  0
 12 14  1  0  0  0  0
 13 15  1  0  0  0  0
 13 16  1  0  0  0  0
 14 15  1  0  0  0  0
 14 17  2  0  0  0  0
 15 18  2  0  0  0  0
 16 19  1  0  0  0  0
 16 39  1  0  0  0  0
 16 40  1  0  0  0  0
 17 20  1  0  0  0  0
 17 41  1  0  0  0  0
 18 21  1  0  0  0  0
 18 42  1  0  0  0  0
 19 22  2  0  0  0  0
 19 23  1  0  0  0  0
 20 21  2  0  0  0  0
 20 43  1  0  0  0  0
 21 44  1  0  0  0  0
 22 24  1  0  0  0  0
 22 45  1  0  0  0  0
 23 25  2  0  0  0  0
 23 46  1  0  0  0  0
 24 26  2  0  0  0  0
 24 47  1  0  0  0  0
 25 26  1  0  0  0  0
 25 48  1  0  0  0  0
M  END
> <PUBCHEM_COMPOUND_CID>
162558

> <PUBCHEM_CONFORMER_RMSD>
0.8

> <PUBCHEM_CONFORMER_DIVERSEORDER>
1
72
56
54
52
53
29
37
79
44
19
47
74
15
64
43
38
55
8
66
80
61
50
51
10
71
48
58
42
73
26
32
40
12
41
21
78
3
60
59
70
11
17
18
45
65
36
76
49
23
28
75
57
46
30
34
39
25
68
14
2
5
27
35
31
62
24
67
20
69
7
16
22
63
13
33
6
9
77
4

> <PUBCHEM_MMFF94_PARTIAL_CHARGES>
32
1 -0.18
10 0.27
11 0.27
12 0.54
13 0.3
14 0.09
15 0.09
16 0.2
17 -0.15
18 -0.15
19 -0.14
2 -0.57
20 -0.15
21 -0.15
22 -0.15
23 -0.15
24 -0.15
25 -0.15
26 0.18
3 -0.3
38 0.36
4 -0.9
41 0.15
42 0.15
43 0.15
44 0.15
45 0.15
46 0.15
47 0.15
48 0.15
5 -0.51
6 0.3

> <PUBCHEM_EFFECTIVE_ROTOR_COUNT>
4.4

> <PUBCHEM_PHARMACOPHORE_FEATURES>
8
1 2 acceptor
1 4 cation
1 4 donor
1 5 acceptor
6 14 15 17 18 20 21 rings
6 19 22 23 24 25 26 rings
6 3 5 12 13 14 15 rings
7 4 6 7 8 9 10 11 rings

> <PUBCHEM_HEAVY_ATOM_COUNT>
26

> <PUBCHEM_ATOM_DEF_STEREO_COUNT>
0

> <PUBCHEM_ATOM_UDEF_STEREO_COUNT>
1

> <PUBCHEM_BOND_DEF_STEREO_COUNT>
0

> <PUBCHEM_BOND_UDEF_STEREO_COUNT>
0

> <PUBCHEM_ISOTOPIC_ATOM_COUNT>
0

> <PUBCHEM_COMPONENT_COUNT>
1

> <PUBCHEM_CACTVS_TAUTO_COUNT>
1

> <PUBCHEM_CONFORMER_ID>
00027AFE00000001

> <PUBCHEM_MMFF94_ENERGY>
69.2545

> <PUBCHEM_FEATURE_SELFOVERLAP>
40.621

> <PUBCHEM_SHAPE_FINGERPRINT>
104564 63 18339079427013763260
10670039 82 18118983609916138172
10688039 33 17971194969901208651
108634 29 18412268319727436358
1100329 8 18120085083784850746
11014199 57 17691969679690989431
11045515 52 17980474886678987199
12156800 1 18122097357535101495
12236239 1 17631164191272811641
12293681 4 18044659947144080306
12422481 6 18123783999914251915
12788726 201 18264759025251011962
13052359 8 18335420157822106000
13140716 1 18410569588023130552
13583140 156 16660915591960426084
138480 1 16824743661711100617
13965767 371 17625307183131107283
140371 6 17827644969810072112
14363568 33 17181667697524262793
14787075 74 18271800177630557341
14866123 147 18262791844778900210
14931854 50 18266999757672103527
17138139 8 17840829050646295349
17357779 13 18123460837393998324
17492 54 18263905697597246549
19591789 44 17545884828461344942
20028762 73 17911228426135328151
20587220 17 17195482615258318705
21041028 32 18048603908348200671
21133410 90 17202209702337495739
21197605 99 18411992347563836675
21236236 1 18411136983040778068
21344244 181 17774450360523521975
21641784 216 17971203757642044268
23419403 2 17058357326540228400
23558518 356 18114467876515097336
23559900 14 17181362608812311297
238 59 17541072309121588589
25147074 1 18260824913466527800
283562 15 18266171932479482658
338550 245 18334301997415046253
350125 39 18267308823429733984
352729 6 18343023242611502412
4058900 60 18048882896924501629
469060 322 17167577207006320543
5104073 3 18337941377810590064
5171179 24 17699838824228589024
5486654 2 18340208487985666837
6438718 38 18201997746328407767
81228 2 18263352767090616856

> <PUBCHEM_SHAPE_MULTIPOLES>
516.13
9.11
5.15
1.17
5.7
2.59
0.03
-4.19
-0.08
-5.94
-0.2
-1.11
0.38
0.11

> <PUBCHEM_SHAPE_SELFOVERLAP>
1109.381

> <PUBCHEM_SHAPE_VOLUME>
283

> <PUBCHEM_COORDINATE_TYPE>
2
5
10

$$$$