4499
  -OEChem-03242010103D

 52 53  0     1  0  0  0  0  0999 V2000
    2.1975    0.8553    0.1186 O   0  0  0  0  0  0  0  0  0  0  0  0
   -3.9262   -0.3856    1.3106 O   0  0  0  0  0  0  0  0  0  0  0  0
    1.4475    1.4611    2.2233 O   0  0  0  0  0  0  0  0  0  0  0  0
   -3.6333   -1.4052   -0.7471 O   0  0  0  0  0  0  0  0  0  0  0  0
    1.7280   -2.5995    1.9478 O   0  5  0  0  0  0  0  0  0  0  0  0
    0.4359   -0.8420    2.1951 O   0  0  0  0  0  0  0  0  0  0  0  0
   -1.6828    2.6716   -0.7372 N   0  0  0  0  0  0  0  0  0  0  0  0
    0.9212   -1.7569    1.4885 N   0  3  0  0  0  0  0  0  0  0  0  0
   -0.9434    0.1755    0.3810 C   0  0  1  0  0  0  0  0  0  0  0  0
   -0.0180    1.3976    0.3618 C   0  0  0  0  0  0  0  0  0  0  0  0
   -2.3579    0.4903   -0.1159 C   0  0  0  0  0  0  0  0  0  0  0  0
   -0.3466   -0.9311   -0.4403 C   0  0  0  0  0  0  0  0  0  0  0  0
   -0.4110    2.5652   -0.1964 C   0  0  0  0  0  0  0  0  0  0  0  0
   -2.6562    1.6881   -0.6679 C   0  0  0  0  0  0  0  0  0  0  0  0
    1.2821    1.2501    1.0361 C   0  0  0  0  0  0  0  0  0  0  0  0
    0.5439   -1.8417    0.1198 C   0  0  0  0  0  0  0  0  0  0  0  0
   -0.7040   -1.0269   -1.7818 C   0  0  0  0  0  0  0  0  0  0  0  0
    0.4303    3.8086   -0.3014 C   0  0  0  0  0  0  0  0  0  0  0  0
   -3.3745   -0.5552    0.0848 C   0  0  0  0  0  0  0  0  0  0  0  0
   -3.9952    2.0800   -1.2318 C   0  0  0  0  0  0  0  0  0  0  0  0
    4.4555    0.2236   -0.5046 C   0  0  0  0  0  0  0  0  0  0  0  0
    3.5226    0.6668    0.6258 C   0  0  0  0  0  0  0  0  0  0  0  0
    1.0823   -2.8583   -0.6692 C   0  0  0  0  0  0  0  0  0  0  0  0
   -0.1653   -2.0435   -2.5708 C   0  0  0  0  0  0  0  0  0  0  0  0
    0.7278   -2.9590   -2.0145 C   0  0  0  0  0  0  0  0  0  0  0  0
    5.8508   -0.0718    0.0411 C   0  0  0  0  0  0  0  0  0  0  0  0
    4.5297    1.2775   -1.6115 C   0  0  0  0  0  0  0  0  0  0  0  0
   -4.9408   -1.3345    1.6560 C   0  0  0  0  0  0  0  0  0  0  0  0
   -1.2033   -0.0825    1.4078 H   0  0  0  0  0  0  0  0  0  0  0  0
   -1.9414    3.5584   -1.1551 H   0  0  0  0  0  0  0  0  0  0  0  0
   -1.3643   -0.3207   -2.2746 H   0  0  0  0  0  0  0  0  0  0  0  0
   -0.0510    4.6363    0.2307 H   0  0  0  0  0  0  0  0  0  0  0  0
    1.4317    3.6833    0.1201 H   0  0  0  0  0  0  0  0  0  0  0  0
    0.5499    4.0961   -1.3516 H   0  0  0  0  0  0  0  0  0  0  0  0
   -4.3986    2.9392   -0.6854 H   0  0  0  0  0  0  0  0  0  0  0  0
   -3.8939    2.3578   -2.2865 H   0  0  0  0  0  0  0  0  0  0  0  0
   -4.7340    1.2757   -1.1746 H   0  0  0  0  0  0  0  0  0  0  0  0
    4.0496   -0.6930   -0.9513 H   0  0  0  0  0  0  0  0  0  0  0  0
    3.8776    1.6079    1.0640 H   0  0  0  0  0  0  0  0  0  0  0  0
    3.5001   -0.0994    1.4097 H   0  0  0  0  0  0  0  0  0  0  0  0
    1.7823   -3.5899   -0.2737 H   0  0  0  0  0  0  0  0  0  0  0  0
   -0.4343   -2.1174   -3.6204 H   0  0  0  0  0  0  0  0  0  0  0  0
    1.1488   -3.7488   -2.6299 H   0  0  0  0  0  0  0  0  0  0  0  0
    6.5153   -0.4193   -0.7570 H   0  0  0  0  0  0  0  0  0  0  0  0
    5.8111   -0.8543    0.8063 H   0  0  0  0  0  0  0  0  0  0  0  0
    6.2996    0.8203    0.4912 H   0  0  0  0  0  0  0  0  0  0  0  0
    5.2004    0.9509   -2.4133 H   0  0  0  0  0  0  0  0  0  0  0  0
    4.9031    2.2323   -1.2258 H   0  0  0  0  0  0  0  0  0  0  0  0
    3.5448    1.4537   -2.0563 H   0  0  0  0  0  0  0  0  0  0  0  0
   -5.7774   -1.2667    0.9540 H   0  0  0  0  0  0  0  0  0  0  0  0
   -4.5250   -2.3466    1.6659 H   0  0  0  0  0  0  0  0  0  0  0  0
   -5.3036   -1.0941    2.6588 H   0  0  0  0  0  0  0  0  0  0  0  0
  1 15  1  0  0  0  0
  1 22  1  0  0  0  0
  2 19  1  0  0  0  0
  2 28  1  0  0  0  0
  3 15  2  0  0  0  0
  4 19  2  0  0  0  0
  5  8  1  0  0  0  0
  6  8  2  0  0  0  0
  7 13  1  0  0  0  0
  7 14  1  0  0  0  0
  7 30  1  0  0  0  0
  8 16  1  0  0  0  0
  9 10  1  0  0  0  0
  9 11  1  0  0  0  0
  9 12  1  0  0  0  0
  9 29  1  0  0  0  0
 10 13  2  0  0  0  0
 10 15  1  0  0  0  0
 11 14  2  0  0  0  0
 11 19  1  0  0  0  0
 12 16  1  0  0  0  0
 12 17  2  0  0  0  0
 13 18  1  0  0  0  0
 14 20  1  0  0  0  0
 16 23  2  0  0  0  0
 17 24  1  0  0  0  0
 17 31  1  0  0  0  0
 18 32  1  0  0  0  0
 18 33  1  0  0  0  0
 18 34  1  0  0  0  0
 20 35  1  0  0  0  0
 20 36  1  0  0  0  0
 20 37  1  0  0  0  0
 21 22  1  0  0  0  0
 21 26  1  0  0  0  0
 21 27  1  0  0  0  0
 21 38  1  0  0  0  0
 22 39  1  0  0  0  0
 22 40  1  0  0  0  0
 23 25  1  0  0  0  0
 23 41  1  0  0  0  0
 24 25  2  0  0  0  0
 24 42  1  0  0  0  0
 25 43  1  0  0  0  0
 26 44  1  0  0  0  0
 26 45  1  0  0  0  0
 26 46  1  0  0  0  0
 27 47  1  0  0  0  0
 27 48  1  0  0  0  0
 27 49  1  0  0  0  0
 28 50  1  0  0  0  0
 28 51  1  0  0  0  0
 28 52  1  0  0  0  0
M  CHG  2   5  -1   8   1
M  END
> <PUBCHEM_COMPOUND_CID>
4499

> <PUBCHEM_CONFORMER_RMSD>
1

> <PUBCHEM_CONFORMER_DIVERSEORDER>
1
21
18
22
5
7
13
10
6
15
20
23
16
12
2
11
17
4
3
19
9
24
14
8

> <PUBCHEM_MMFF94_PARTIAL_CHARGES>
30
1 -0.43
10 -0.12
11 -0.12
12 -0.14
13 -0.04
14 -0.04
15 0.71
16 0.13
17 -0.15
18 0.14
19 0.71
2 -0.43
20 0.14
22 0.28
23 -0.15
24 -0.15
25 -0.15
28 0.28
3 -0.57
30 0.4
31 0.15
4 -0.57
41 0.15
42 0.15
43 0.15
5 -0.52
6 -0.52
7 -0.6
8 0.91
9 0.42

> <PUBCHEM_EFFECTIVE_ROTOR_COUNT>
8.4

> <PUBCHEM_PHARMACOPHORE_FEATURES>
10
1 3 acceptor
1 4 acceptor
1 5 acceptor
1 5 anion
1 6 acceptor
1 7 cation
1 7 donor
3 21 26 27 hydrophobe
6 12 16 17 23 24 25 rings
6 7 9 10 11 13 14 rings

> <PUBCHEM_HEAVY_ATOM_COUNT>
28

> <PUBCHEM_ATOM_DEF_STEREO_COUNT>
0

> <PUBCHEM_ATOM_UDEF_STEREO_COUNT>
1

> <PUBCHEM_BOND_DEF_STEREO_COUNT>
0

> <PUBCHEM_BOND_UDEF_STEREO_COUNT>
0

> <PUBCHEM_ISOTOPIC_ATOM_COUNT>
0

> <PUBCHEM_COMPONENT_COUNT>
1

> <PUBCHEM_CACTVS_TAUTO_COUNT>
3

> <PUBCHEM_CONFORMER_ID>
0000119300000001

> <PUBCHEM_MMFF94_ENERGY>
100.035

> <PUBCHEM_FEATURE_SELFOVERLAP>
50.845

> <PUBCHEM_SHAPE_FINGERPRINT>
10863032 1 17969499312248566800
10906281 52 18053374410603364013
11488393 25 18057897839725585766
11578080 2 16734940125941683599
12156800 1 15438520641708182287
12422481 6 18057053402026148386
12592029 89 18272664441067292594
12715332 25 18060420261333311404
12788726 201 18338815476258800172
13140716 1 17975985572465615251
14251751 93 18412538817020666614
14713325 29 18267874882454142080
14787075 74 17896046596884975747
14955137 171 18128834086595156177
15209289 33 17560806571096451557
16945 1 18189319338146888633
19591789 44 18271800276245428646
20905425 154 18266739082525765108
21330990 113 18130525075059151892
22182313 1 18341060601481557373
23419403 2 17331738566393841922
23559900 14 17834672691157321503
2748010 2 18269253721595813197
2818148 4 18269539663259851726
465052 167 18117574031139004435
5265222 85 18342458167371872044
58260988 521 18197240189448436194
81228 2 17407372094288826891

> <PUBCHEM_SHAPE_MULTIPOLES>
531.05
7.85
3.67
2.03
3.55
0.52
0.16
0.98
0.46
-0.21
-1.2
-0.07
-1.12
0.72

> <PUBCHEM_SHAPE_SELFOVERLAP>
1125.936

> <PUBCHEM_SHAPE_VOLUME>
296.2

> <PUBCHEM_COORDINATE_TYPE>
2
5
10

$$$$