2267
  -OEChem-03242010103D

 51 54  0     1  0  0  0  0  0999 V2000
   -4.4723    3.8481   -0.0027 Cl  0  0  0  0  0  0  0  0  0  0  0  0
    1.9505   -3.0156    0.1569 O   0  0  0  0  0  0  0  0  0  0  0  0
   -3.2131   -3.2799   -0.3402 N   0  0  1  0  0  0  0  0  0  0  0  0
    0.6100   -1.1220    0.1014 N   0  0  0  0  0  0  0  0  0  0  0  0
    0.4938    0.2373    0.0351 N   0  0  0  0  0  0  0  0  0  0  0  0
   -0.6490   -1.8352    0.1770 C   0  0  1  0  0  0  0  0  0  0  0  0
   -1.3813   -1.4127    1.4547 C   0  0  0  0  0  0  0  0  0  0  0  0
   -1.4809   -1.5403   -1.0744 C   0  0  0  0  0  0  0  0  0  0  0  0
   -2.6178   -2.2355    1.8053 C   0  0  0  0  0  0  0  0  0  0  0  0
   -2.4985   -2.6262   -1.4407 C   0  0  0  0  0  0  0  0  0  0  0  0
   -3.6730   -2.3642    0.7044 C   0  0  0  0  0  0  0  0  0  0  0  0
    1.8313   -1.7936    0.0979 C   0  0  0  0  0  0  0  0  0  0  0  0
   -4.3169   -4.0822   -0.8706 C   0  0  0  0  0  0  0  0  0  0  0  0
    3.0468   -0.9640    0.0193 C   0  0  0  0  0  0  0  0  0  0  0  0
    1.5586    0.9708   -0.0345 C   0  0  0  0  0  0  0  0  0  0  0  0
    2.9240    0.4191   -0.0470 C   0  0  0  0  0  0  0  0  0  0  0  0
    1.3682    2.4678   -0.1055 C   0  0  0  0  0  0  0  0  0  0  0  0
    4.3140   -1.5578    0.0117 C   0  0  0  0  0  0  0  0  0  0  0  0
    4.0667    1.2209   -0.1210 C   0  0  0  0  0  0  0  0  0  0  0  0
   -0.0871    2.8127   -0.0799 C   0  0  0  0  0  0  0  0  0  0  0  0
    5.4543   -0.7580   -0.0622 C   0  0  0  0  0  0  0  0  0  0  0  0
    5.3305    0.6285   -0.1284 C   0  0  0  0  0  0  0  0  0  0  0  0
   -0.7256    3.0342    1.1378 C   0  0  0  0  0  0  0  0  0  0  0  0
   -0.7976    2.9098   -1.2738 C   0  0  0  0  0  0  0  0  0  0  0  0
   -2.0829    3.3548    1.1618 C   0  0  0  0  0  0  0  0  0  0  0  0
   -2.1549    3.2304   -1.2500 C   0  0  0  0  0  0  0  0  0  0  0  0
   -2.7977    3.4530   -0.0322 C   0  0  0  0  0  0  0  0  0  0  0  0
   -0.4361   -2.9095    0.2266 H   0  0  0  0  0  0  0  0  0  0  0  0
   -1.6802   -0.3578    1.3894 H   0  0  0  0  0  0  0  0  0  0  0  0
   -0.6891   -1.4712    2.3057 H   0  0  0  0  0  0  0  0  0  0  0  0
   -0.8193   -1.4168   -1.9432 H   0  0  0  0  0  0  0  0  0  0  0  0
   -2.0006   -0.5791   -0.9628 H   0  0  0  0  0  0  0  0  0  0  0  0
   -2.3028   -3.2367    2.1284 H   0  0  0  0  0  0  0  0  0  0  0  0
   -3.0905   -1.7748    2.6824 H   0  0  0  0  0  0  0  0  0  0  0  0
   -3.2099   -2.1774   -2.1475 H   0  0  0  0  0  0  0  0  0  0  0  0
   -1.9633   -3.4069   -1.9971 H   0  0  0  0  0  0  0  0  0  0  0  0
   -4.5683   -2.7735    1.1916 H   0  0  0  0  0  0  0  0  0  0  0  0
   -3.9690   -1.3862    0.3055 H   0  0  0  0  0  0  0  0  0  0  0  0
   -4.7756   -4.6807   -0.0754 H   0  0  0  0  0  0  0  0  0  0  0  0
   -3.9544   -4.7927   -1.6221 H   0  0  0  0  0  0  0  0  0  0  0  0
   -5.0944   -3.4598   -1.3281 H   0  0  0  0  0  0  0  0  0  0  0  0
    1.8284    2.8511   -1.0240 H   0  0  0  0  0  0  0  0  0  0  0  0
    1.8808    2.9414    0.7403 H   0  0  0  0  0  0  0  0  0  0  0  0
    4.4340   -2.6365    0.0627 H   0  0  0  0  0  0  0  0  0  0  0  0
    4.0059    2.3034   -0.1738 H   0  0  0  0  0  0  0  0  0  0  0  0
    6.4391   -1.2159   -0.0680 H   0  0  0  0  0  0  0  0  0  0  0  0
    6.2197    1.2498   -0.1859 H   0  0  0  0  0  0  0  0  0  0  0  0
   -0.1801    2.9579    2.0745 H   0  0  0  0  0  0  0  0  0  0  0  0
   -0.3084    2.7359   -2.2285 H   0  0  0  0  0  0  0  0  0  0  0  0
   -2.5709    3.5242    2.1181 H   0  0  0  0  0  0  0  0  0  0  0  0
   -2.6992    3.3022   -2.1881 H   0  0  0  0  0  0  0  0  0  0  0  0
  1 27  1  0  0  0  0
  2 12  2  0  0  0  0
  3 10  1  0  0  0  0
  3 11  1  0  0  0  0
  3 13  1  0  0  0  0
  4  5  1  0  0  0  0
  4  6  1  0  0  0  0
  4 12  1  0  0  0  0
  5 15  2  0  0  0  0
  6  7  1  0  0  0  0
  6  8  1  0  0  0  0
  6 28  1  0  0  0  0
  7  9  1  0  0  0  0
  7 29  1  0  0  0  0
  7 30  1  0  0  0  0
  8 10  1  0  0  0  0
  8 31  1  0  0  0  0
  8 32  1  0  0  0  0
  9 11  1  0  0  0  0
  9 33  1  0  0  0  0
  9 34  1  0  0  0  0
 10 35  1  0  0  0  0
 10 36  1  0  0  0  0
 11 37  1  0  0  0  0
 11 38  1  0  0  0  0
 12 14  1  0  0  0  0
 13 39  1  0  0  0  0
 13 40  1  0  0  0  0
 13 41  1  0  0  0  0
 14 16  1  0  0  0  0
 14 18  2  0  0  0  0
 15 16  1  0  0  0  0
 15 17  1  0  0  0  0
 16 19  2  0  0  0  0
 17 20  1  0  0  0  0
 17 42  1  0  0  0  0
 17 43  1  0  0  0  0
 18 21  1  0  0  0  0
 18 44  1  0  0  0  0
 19 22  1  0  0  0  0
 19 45  1  0  0  0  0
 20 23  2  0  0  0  0
 20 24  1  0  0  0  0
 21 22  2  0  0  0  0
 21 46  1  0  0  0  0
 22 47  1  0  0  0  0
 23 25  1  0  0  0  0
 23 48  1  0  0  0  0
 24 26  2  0  0  0  0
 24 49  1  0  0  0  0
 25 27  2  0  0  0  0
 25 50  1  0  0  0  0
 26 27  1  0  0  0  0
 26 51  1  0  0  0  0
M  END
> <PUBCHEM_COMPOUND_CID>
2267

> <PUBCHEM_CONFORMER_RMSD>
0.8

> <PUBCHEM_CONFORMER_DIVERSEORDER>
1
61
47
66
65
16
84
48
85
75
93
74
81
49
6
40
17
10
78
88
67
5
62
25
89
80
50
7
56
18
22
54
39
90
36
30
70
94
92
76
42
53
69
46
68
64
91
26
55
77
86
58
14
79
83
63
13
59
34
82
87
45
28
51
52
31
73
72
35
23
71
3
38
8
60
44
11
19
57
24
37
9
41
12
27
15
33
4
43
32
21
2
20
29

> <PUBCHEM_MMFF94_PARTIAL_CHARGES>
32
1 -0.18
10 0.27
11 0.27
12 0.54
13 0.27
14 0.09
15 0.3
16 0.09
17 0.2
18 -0.15
19 -0.15
2 -0.57
20 -0.14
21 -0.15
22 -0.15
23 -0.15
24 -0.15
25 -0.15
26 -0.15
27 0.18
3 -0.81
4 -0.3
44 0.15
45 0.15
46 0.15
47 0.15
48 0.15
49 0.15
5 -0.51
50 0.15
51 0.15
6 0.3

> <PUBCHEM_EFFECTIVE_ROTOR_COUNT>
4.4

> <PUBCHEM_PHARMACOPHORE_FEATURES>
7
1 2 acceptor
1 3 cation
1 5 acceptor
6 14 16 18 19 21 22 rings
6 20 23 24 25 26 27 rings
6 4 5 12 14 15 16 rings
7 3 6 7 8 9 10 11 rings

> <PUBCHEM_HEAVY_ATOM_COUNT>
27

> <PUBCHEM_ATOM_DEF_STEREO_COUNT>
0

> <PUBCHEM_ATOM_UDEF_STEREO_COUNT>
1

> <PUBCHEM_BOND_DEF_STEREO_COUNT>
0

> <PUBCHEM_BOND_UDEF_STEREO_COUNT>
0

> <PUBCHEM_ISOTOPIC_ATOM_COUNT>
0

> <PUBCHEM_COMPONENT_COUNT>
1

> <PUBCHEM_CACTVS_TAUTO_COUNT>
1

> <PUBCHEM_CONFORMER_ID>
000008DB00000001

> <PUBCHEM_MMFF94_ENERGY>
77.3202

> <PUBCHEM_FEATURE_SELFOVERLAP>
35.547

> <PUBCHEM_SHAPE_FINGERPRINT>
10050765 1 18411136910574726398
104564 63 18409450306106827340
10688039 33 18114753744810757145
10930396 42 17689964124176101832
1100329 8 17831011326416963770
11045515 52 18267298923044605507
11227688 84 16105845520204635031
11578080 2 17631146702397136896
12156800 1 18120621765512302361
12236239 1 17702112571420303242
12293681 4 18115315612432849098
12422481 6 18050603727063292585
12788726 201 18335689525655586515
13140716 1 18266750249314517657
13540713 5 18260265223435462630
13583140 156 14836135321178608818
13590594 115 18266180707250811683
13692114 37 18126544765978931721
138480 1 16177352267401336413
13911987 19 17539143057304844028
13965767 371 17626148249407187899
140371 6 18043539524084826364
16728300 4 16090083003313794138
17138139 8 17838856470804057149
1813 80 18127427849809780566
19591789 44 17113538117503818094
19930381 70 17257084304349641887
20028762 73 17478036169282096151
20587220 17 16907527065316012585
20775438 99 17912913990034238750
21041028 32 18264497349941322263
21049683 271 17829893487814998206
21133410 38 17699018289257011097
21133410 62 18043230372972104429
21197605 99 18266470815296468809
21344244 181 17841157645265942399
21641784 216 18042702756986873900
23559900 14 17763175148407947819
283562 15 18336543915146916418
3383291 50 17475794247994262730
5171179 24 18057595663217492096
57527358 35 13752175494676594600
6004065 56 17762890365841786114
7164475 11 18409453609379711980
7471813 234 17913210042430416843

> <PUBCHEM_SHAPE_MULTIPOLES>
536.7
9.02
6.31
1.22
8.25
0.95
0.12
-1.86
-0.49
-10.4
-0.59
-1.22
-0.21
-0.44

> <PUBCHEM_SHAPE_SELFOVERLAP>
1149.545

> <PUBCHEM_SHAPE_VOLUME>
296.5

> <PUBCHEM_COORDINATE_TYPE>
2
5
10

$$$$