127044910
  -OEChem-03242010103D

 58 62  0     0  0  0  0  0  0999 V2000
   -3.3701    3.5814    0.8358 O   0  0  0  0  0  0  0  0  0  0  0  0
   -9.3710   -0.7370    0.2033 O   0  0  0  0  0  0  0  0  0  0  0  0
    2.7960    2.0011    0.5172 N   0  0  0  0  0  0  0  0  0  0  0  0
    3.1810   -0.3182    0.4230 N   0  0  0  0  0  0  0  0  0  0  0  0
    5.2798   -1.1842   -0.3844 N   0  0  0  0  0  0  0  0  0  0  0  0
    4.9268    1.1866   -0.3050 C   0  0  0  0  0  0  0  0  0  0  0  0
    3.6582    0.9212    0.2030 C   0  0  0  0  0  0  0  0  0  0  0  0
    5.7251    0.0673   -0.5922 C   0  0  0  0  0  0  0  0  0  0  0  0
    1.3981    2.1302    0.5099 C   0  0  0  0  0  0  0  0  0  0  0  0
    4.0321   -1.3090    0.1117 C   0  0  0  0  0  0  0  0  0  0  0  0
    5.4028    2.4905   -0.5262 C   0  0  0  0  0  0  0  0  0  0  0  0
    7.0013    0.2929   -1.1021 C   0  0  0  0  0  0  0  0  0  0  0  0
    3.5623   -2.6520    0.3310 C   0  0  0  0  0  0  0  0  0  0  0  0
    0.7736    3.0027    1.4012 C   0  0  0  0  0  0  0  0  0  0  0  0
    0.6337    1.3859   -0.3887 C   0  0  0  0  0  0  0  0  0  0  0  0
   -1.3797    2.3866    0.4956 C   0  0  0  0  0  0  0  0  0  0  0  0
    6.6822    2.6868   -1.0366 C   0  0  0  0  0  0  0  0  0  0  0  0
    7.4821    1.5866   -1.3248 C   0  0  0  0  0  0  0  0  0  0  0  0
   -0.6152    3.1308    1.3941 C   0  0  0  0  0  0  0  0  0  0  0  0
   -0.7552    1.5142   -0.3958 C   0  0  0  0  0  0  0  0  0  0  0  0
    4.4679   -3.6643    0.6482 C   0  0  0  0  0  0  0  0  0  0  0  0
    2.2017   -2.9410    0.2265 C   0  0  0  0  0  0  0  0  0  0  0  0
   -2.8278    2.5213    0.4883 C   0  0  0  0  0  0  0  0  0  0  0  0
    4.0130   -4.9658    0.8609 C   0  0  0  0  0  0  0  0  0  0  0  0
    1.7467   -4.2422    0.4392 C   0  0  0  0  0  0  0  0  0  0  0  0
   -3.6587    1.3371    0.0808 C   0  0  0  0  0  0  0  0  0  0  0  0
   -5.8951    0.2984   -0.2812 C   0  0  0  0  0  0  0  0  0  0  0  0
    2.6524   -5.2547    0.7563 C   0  0  0  0  0  0  0  0  0  0  0  0
   -4.9980    1.4081    0.0864 C   0  0  0  0  0  0  0  0  0  0  0  0
   -7.2249    0.3069    0.1399 C   0  0  0  0  0  0  0  0  0  0  0  0
   -5.4134   -0.7618   -1.0493 C   0  0  0  0  0  0  0  0  0  0  0  0
   -8.0730   -0.7446   -0.2070 C   0  0  0  0  0  0  0  0  0  0  0  0
   -6.2617   -1.8134   -1.3962 C   0  0  0  0  0  0  0  0  0  0  0  0
   -7.5915   -1.8048   -0.9750 C   0  0  0  0  0  0  0  0  0  0  0  0
  -10.1817   -1.8440   -0.1879 C   0  0  0  0  0  0  0  0  0  0  0  0
    3.2650    2.7440    1.0283 H   0  0  0  0  0  0  0  0  0  0  0  0
    4.8007    3.3708   -0.3195 H   0  0  0  0  0  0  0  0  0  0  0  0
    7.6472   -0.5514   -1.3359 H   0  0  0  0  0  0  0  0  0  0  0  0
    1.3572    3.5874    2.1078 H   0  0  0  0  0  0  0  0  0  0  0  0
    1.0984    0.7154   -1.1068 H   0  0  0  0  0  0  0  0  0  0  0  0
    7.0531    3.6923   -1.2107 H   0  0  0  0  0  0  0  0  0  0  0  0
    8.4819    1.7310   -1.7239 H   0  0  0  0  0  0  0  0  0  0  0  0
   -1.0835    3.8126    2.0993 H   0  0  0  0  0  0  0  0  0  0  0  0
   -1.3077    0.9457   -1.1380 H   0  0  0  0  0  0  0  0  0  0  0  0
    5.5332   -3.4700    0.7472 H   0  0  0  0  0  0  0  0  0  0  0  0
    1.4717   -2.1766   -0.0288 H   0  0  0  0  0  0  0  0  0  0  0  0
    4.7175   -5.7539    1.1101 H   0  0  0  0  0  0  0  0  0  0  0  0
    0.6877   -4.4680    0.3558 H   0  0  0  0  0  0  0  0  0  0  0  0
   -3.1433    0.4130   -0.1467 H   0  0  0  0  0  0  0  0  0  0  0  0
   -5.4969    2.3314    0.3707 H   0  0  0  0  0  0  0  0  0  0  0  0
    2.2981   -6.2679    0.9218 H   0  0  0  0  0  0  0  0  0  0  0  0
   -7.6114    1.1275    0.7404 H   0  0  0  0  0  0  0  0  0  0  0  0
   -4.3928   -0.8013   -1.4181 H   0  0  0  0  0  0  0  0  0  0  0  0
   -5.8876   -2.6363   -1.9985 H   0  0  0  0  0  0  0  0  0  0  0  0
   -8.1950   -2.6524   -1.2811 H   0  0  0  0  0  0  0  0  0  0  0  0
  -11.1817   -1.6737    0.2242 H   0  0  0  0  0  0  0  0  0  0  0  0
   -9.8151   -2.7828    0.2409 H   0  0  0  0  0  0  0  0  0  0  0  0
  -10.2899   -1.8988   -1.2765 H   0  0  0  0  0  0  0  0  0  0  0  0
  1 23  2  0  0  0  0
  2 32  1  0  0  0  0
  2 35  1  0  0  0  0
  3  7  1  0  0  0  0
  3  9  1  0  0  0  0
  3 36  1  0  0  0  0
  4  7  2  0  0  0  0
  4 10  1  0  0  0  0
  5  8  1  0  0  0  0
  5 10  2  0  0  0  0
  6  7  1  0  0  0  0
  6  8  1  0  0  0  0
  6 11  2  0  0  0  0
  8 12  2  0  0  0  0
  9 14  2  0  0  0  0
  9 15  1  0  0  0  0
 10 13  1  0  0  0  0
 11 17  1  0  0  0  0
 11 37  1  0  0  0  0
 12 18  1  0  0  0  0
 12 38  1  0  0  0  0
 13 21  2  0  0  0  0
 13 22  1  0  0  0  0
 14 19  1  0  0  0  0
 14 39  1  0  0  0  0
 15 20  2  0  0  0  0
 15 40  1  0  0  0  0
 16 19  2  0  0  0  0
 16 20  1  0  0  0  0
 16 23  1  0  0  0  0
 17 18  2  0  0  0  0
 17 41  1  0  0  0  0
 18 42  1  0  0  0  0
 19 43  1  0  0  0  0
 20 44  1  0  0  0  0
 21 24  1  0  0  0  0
 21 45  1  0  0  0  0
 22 25  2  0  0  0  0
 22 46  1  0  0  0  0
 23 26  1  0  0  0  0
 24 28  2  0  0  0  0
 24 47  1  0  0  0  0
 25 28  1  0  0  0  0
 25 48  1  0  0  0  0
 26 29  2  0  0  0  0
 26 49  1  0  0  0  0
 27 29  1  0  0  0  0
 27 30  2  0  0  0  0
 27 31  1  0  0  0  0
 28 51  1  0  0  0  0
 29 50  1  0  0  0  0
 30 32  1  0  0  0  0
 30 52  1  0  0  0  0
 31 33  2  0  0  0  0
 31 53  1  0  0  0  0
 32 34  2  0  0  0  0
 33 34  1  0  0  0  0
 33 54  1  0  0  0  0
 34 55  1  0  0  0  0
 35 56  1  0  0  0  0
 35 57  1  0  0  0  0
 35 58  1  0  0  0  0
M  END
> <PUBCHEM_COMPOUND_CID>
127044910

> <PUBCHEM_CONFORMER_RMSD>
1

> <PUBCHEM_CONFORMER_DIVERSEORDER>
3
47
101
45
15
107
73
100
88
75
52
120
93
33
74
65
39
35
91
119
63
92
9
51
69
95
14
48
113
79
49
98
110
114
112
86
84
121
103
31
66
109
27
99
87
70
26
77
20
82
72
83
90
78
61
89
67
71
44
36
60
28
96
58
111
11
41
24
97
76
80
37
62
85
81
32
64
94
123
116
10
59
108
53
19
12
46
1
105
40
2
57
22
34
25
122
18
42
115
106
50
56
68
117
6
16
21
104
43
23
17
13
8
7
4
29
30
5
55
54
102
38
118

> <PUBCHEM_MMFF94_PARTIAL_CHARGES>
53
1 -0.57
10 0.62
11 -0.15
12 -0.15
14 -0.15
15 -0.15
16 0.09
17 -0.15
18 -0.15
19 -0.15
2 -0.36
20 -0.15
21 -0.15
22 -0.15
23 0.47
24 -0.15
25 -0.15
26 -0.14
27 0.03
28 -0.15
29 -0.18
3 -0.6
30 -0.15
31 -0.15
32 0.08
33 -0.15
34 -0.15
35 0.28
36 0.4
37 0.15
38 0.15
39 0.15
4 -0.62
40 0.15
41 0.15
42 0.15
43 0.15
44 0.15
45 0.15
46 0.15
47 0.15
48 0.15
49 0.15
5 -0.62
50 0.15
51 0.15
52 0.15
53 0.15
54 0.15
55 0.15
7 0.41
8 0.31
9 0.1

> <PUBCHEM_EFFECTIVE_ROTOR_COUNT>
7

> <PUBCHEM_PHARMACOPHORE_FEATURES>
10
1 1 acceptor
1 2 acceptor
1 3 donor
3 3 4 7 cation
3 4 5 10 cation
6 13 21 22 24 25 28 rings
6 27 30 31 32 33 34 rings
6 4 5 6 7 8 10 rings
6 6 8 11 12 17 18 rings
6 9 14 15 16 19 20 rings

> <PUBCHEM_HEAVY_ATOM_COUNT>
35

> <PUBCHEM_ATOM_DEF_STEREO_COUNT>
0

> <PUBCHEM_ATOM_UDEF_STEREO_COUNT>
0

> <PUBCHEM_BOND_DEF_STEREO_COUNT>
1

> <PUBCHEM_BOND_UDEF_STEREO_COUNT>
0

> <PUBCHEM_ISOTOPIC_ATOM_COUNT>
0

> <PUBCHEM_COMPONENT_COUNT>
1

> <PUBCHEM_CACTVS_TAUTO_COUNT>
9

> <PUBCHEM_CONFORMER_ID>
07928D2E00000003

> <PUBCHEM_MMFF94_ENERGY>
137.4512

> <PUBCHEM_FEATURE_SELFOVERLAP>
50.92

> <PUBCHEM_SHAPE_FINGERPRINT>
10622 236 18123740968035532354
11103572 155 18337392631176885241
11443803 9 18187641458382601096
11497681 19 18410014291274234420
117089 54 18269274552324868611
11963148 33 18412255130183693367
11966995 16 18267282345314635607
12144603 126 18271254850597780457
13248334 5 17696747028498991809
1361 2 18335142003446212000
1361 4 18410575046556954027
13692114 37 18409442623148774738
14394314 77 18340775854162455169
15250474 111 18196933266932415024
15320295 44 18196374719088168521
15347590 135 17917414463347547520
15347591 1 18264768757742311141
15467298 65 18340483353572081387
15475509 35 18272641346917236433
15890870 6 18335987558179291070
15911013 46 18411698825193272193
16067689 302 18409453592559337891
16628084 112 18337386038154107527
16993438 75 17971204848606091298
17134984 74 18409448090056826440
17324776 126 17247784153370510842
18365409 1 18193001645838748894
19319366 153 18411978062428568812
19841028 212 18334856061603384619
20775438 99 18114749222732973874
21133410 52 18047749305433267930
21360442 67 18335702810189606872
23522609 53 17984453877616451721
23569917 315 18270122280939478126
23729417 116 17613723610138499254
24983565 74 17127307748928683607
25222932 49 18272086080886875108
437795 163 18410857689764951311
439807 62 18411136931617286573
44880168 125 16559027164569625485
45266715 3 17966968314107843427
50009960 94 17825937144452752562
6057620 51 18411989082777554176
6058803 2 18052833446751386512
6201460 15 17905603307563209419
9831232 110 18410565194029324593

> <PUBCHEM_SHAPE_MULTIPOLES>
693.6
26.39
6.17
1.11
55.31
7.73
-0.06
7.66
-9.25
-8.29
2.45
-0.34
-0.27
-3.94

> <PUBCHEM_SHAPE_SELFOVERLAP>
1541.523

> <PUBCHEM_SHAPE_VOLUME>
367.5

> <PUBCHEM_COORDINATE_TYPE>
2
5
10

$$$$