134130015
  -OEChem-03242010103D

 41 44  0     0  0  0  0  0  0999 V2000
   -3.4204    1.9963    0.1627 O   0  0  0  0  0  0  0  0  0  0  0  0
   -1.7392    0.3689   -0.0611 N   0  0  0  0  0  0  0  0  0  0  0  0
    1.6442   -1.7673   -0.1281 N   0  0  0  0  0  0  0  0  0  0  0  0
    0.4913   -1.2139    0.2739 N   0  0  0  0  0  0  0  0  0  0  0  0
    0.2419   -3.2000   -0.7849 N   0  0  0  0  0  0  0  0  0  0  0  0
    1.5443   -2.9450   -0.7598 N   0  0  0  0  0  0  0  0  0  0  0  0
   -1.7858   -2.0657    0.0111 C   0  0  0  0  0  0  0  0  0  0  0  0
   -2.4410   -0.8352    0.0575 C   0  0  0  0  0  0  0  0  0  0  0  0
   -0.3589   -2.1479   -0.1600 C   0  0  0  0  0  0  0  0  0  0  0  0
   -2.5146   -3.2489    0.1315 C   0  0  0  0  0  0  0  0  0  0  0  0
   -3.8250   -0.7879    0.2244 C   0  0  0  0  0  0  0  0  0  0  0  0
    2.8722   -1.1572    0.0972 C   0  0  0  0  0  0  0  0  0  0  0  0
   -3.8987   -3.2016    0.2984 C   0  0  0  0  0  0  0  0  0  0  0  0
   -4.5540   -1.9711    0.3449 C   0  0  0  0  0  0  0  0  0  0  0  0
   -2.2500    1.6702   -0.0039 C   0  0  0  0  0  0  0  0  0  0  0  0
   -1.2413    2.7541   -0.1361 C   0  0  0  0  0  0  0  0  0  0  0  0
    2.9307    0.0687    0.7599 C   0  0  0  0  0  0  0  0  0  0  0  0
    4.0464   -1.7714   -0.3381 C   0  0  0  0  0  0  0  0  0  0  0  0
   -1.4780    4.0017    0.4410 C   0  0  0  0  0  0  0  0  0  0  0  0
   -0.0574    2.5227   -0.8362 C   0  0  0  0  0  0  0  0  0  0  0  0
    4.1635    0.6805    0.9875 C   0  0  0  0  0  0  0  0  0  0  0  0
    5.2792   -1.1598   -0.1106 C   0  0  0  0  0  0  0  0  0  0  0  0
   -0.5305    5.0181    0.3180 C   0  0  0  0  0  0  0  0  0  0  0  0
    0.8900    3.5390   -0.9592 C   0  0  0  0  0  0  0  0  0  0  0  0
    5.3377    0.0662    0.5522 C   0  0  0  0  0  0  0  0  0  0  0  0
    0.6535    4.7867   -0.3822 C   0  0  0  0  0  0  0  0  0  0  0  0
   -2.0284   -4.2212    0.1041 H   0  0  0  0  0  0  0  0  0  0  0  0
   -4.4151    0.1153    0.2649 H   0  0  0  0  0  0  0  0  0  0  0  0
   -0.7348    0.2682   -0.1512 H   0  0  0  0  0  0  0  0  0  0  0  0
   -4.4663   -4.1227    0.3931 H   0  0  0  0  0  0  0  0  0  0  0  0
   -5.6320   -1.9362    0.4736 H   0  0  0  0  0  0  0  0  0  0  0  0
    2.0388    0.5788    1.1144 H   0  0  0  0  0  0  0  0  0  0  0  0
    4.0429   -2.7261   -0.8576 H   0  0  0  0  0  0  0  0  0  0  0  0
   -2.3913    4.2012    0.9952 H   0  0  0  0  0  0  0  0  0  0  0  0
    0.1543    1.5826   -1.3363 H   0  0  0  0  0  0  0  0  0  0  0  0
    4.2093    1.6353    1.5032 H   0  0  0  0  0  0  0  0  0  0  0  0
    6.1938   -1.6377   -0.4493 H   0  0  0  0  0  0  0  0  0  0  0  0
   -0.7140    5.9894    0.7680 H   0  0  0  0  0  0  0  0  0  0  0  0
    1.8085    3.3617   -1.5112 H   0  0  0  0  0  0  0  0  0  0  0  0
    6.2976    0.5425    0.7292 H   0  0  0  0  0  0  0  0  0  0  0  0
    1.3906    5.5784   -0.4794 H   0  0  0  0  0  0  0  0  0  0  0  0
  1 15  2  0  0  0  0
  2  8  1  0  0  0  0
  2 15  1  0  0  0  0
  2 29  1  0  0  0  0
  3  4  1  0  0  0  0
  3  6  1  0  0  0  0
  3 12  1  0  0  0  0
  4  9  2  0  0  0  0
  5  6  2  0  0  0  0
  5  9  1  0  0  0  0
  7  8  1  0  0  0  0
  7  9  1  0  0  0  0
  7 10  2  0  0  0  0
  8 11  2  0  0  0  0
 10 13  1  0  0  0  0
 10 27  1  0  0  0  0
 11 14  1  0  0  0  0
 11 28  1  0  0  0  0
 12 17  2  0  0  0  0
 12 18  1  0  0  0  0
 13 14  2  0  0  0  0
 13 30  1  0  0  0  0
 14 31  1  0  0  0  0
 15 16  1  0  0  0  0
 16 19  2  0  0  0  0
 16 20  1  0  0  0  0
 17 21  1  0  0  0  0
 17 32  1  0  0  0  0
 18 22  2  0  0  0  0
 18 33  1  0  0  0  0
 19 23  1  0  0  0  0
 19 34  1  0  0  0  0
 20 24  2  0  0  0  0
 20 35  1  0  0  0  0
 21 25  2  0  0  0  0
 21 36  1  0  0  0  0
 22 25  1  0  0  0  0
 22 37  1  0  0  0  0
 23 26  2  0  0  0  0
 23 38  1  0  0  0  0
 24 26  1  0  0  0  0
 24 39  1  0  0  0  0
 25 40  1  0  0  0  0
 26 41  1  0  0  0  0
M  END
> <PUBCHEM_COMPOUND_CID>
134130015

> <PUBCHEM_CONFORMER_RMSD>
0.8

> <PUBCHEM_CONFORMER_DIVERSEORDER>
1
17
14
8
16
10
6
11
12
9
3
15
4
13
5
18
2
7

> <PUBCHEM_MMFF94_PARTIAL_CHARGES>
41
1 -0.57
10 -0.15
11 -0.15
12 -0.02
13 -0.15
14 -0.15
15 0.54
16 0.09
17 -0.15
18 -0.15
19 -0.15
2 -0.55
20 -0.15
21 -0.15
22 -0.15
23 -0.15
24 -0.15
25 -0.15
26 -0.15
27 0.15
28 0.15
29 0.37
3 0.86
30 0.15
31 0.15
32 0.15
33 0.15
34 0.15
35 0.15
36 0.15
37 0.15
38 0.15
39 0.15
4 -0.71
40 0.15
41 0.15
5 -0.23
6 -0.42
7 0.05
8 0.12
9 0.46

> <PUBCHEM_EFFECTIVE_ROTOR_COUNT>
5

> <PUBCHEM_PHARMACOPHORE_FEATURES>
7
1 1 acceptor
1 2 donor
3 4 5 9 cation
5 3 4 5 6 9 rings
6 12 17 18 21 22 25 rings
6 16 19 20 23 24 26 rings
6 7 8 10 11 13 14 rings

> <PUBCHEM_HEAVY_ATOM_COUNT>
26

> <PUBCHEM_ATOM_DEF_STEREO_COUNT>
0

> <PUBCHEM_ATOM_UDEF_STEREO_COUNT>
0

> <PUBCHEM_BOND_DEF_STEREO_COUNT>
0

> <PUBCHEM_BOND_UDEF_STEREO_COUNT>
0

> <PUBCHEM_ISOTOPIC_ATOM_COUNT>
0

> <PUBCHEM_COMPONENT_COUNT>
1

> <PUBCHEM_CACTVS_TAUTO_COUNT>
6

> <PUBCHEM_CONFORMER_ID>
07FEA95F00000001

> <PUBCHEM_MMFF94_ENERGY>
80.3669

> <PUBCHEM_FEATURE_SELFOVERLAP>
35.522

> <PUBCHEM_SHAPE_FINGERPRINT>
10006869 2 18120085079816664683
10050765 1 17905611361370732947
10256941 240 17394133592672012524
10411042 1 18338237166726725003
10670039 82 18335715918820087710
10693767 8 14386333265929829038
1100329 8 17977665638579974126
11595378 159 18189874518710473258
12156800 1 11337517942750633559
12403259 226 18343017766528596506
13140716 1 18410011039646374208
13402501 40 18342171137831361570
138480 1 15455929655723867416
140371 6 18411707603805932971
14117953 113 18412266125494767023
14363568 33 17832162875482889016
14955137 171 18265623254238642979
15400415 2 17545601150842352624
15961568 22 18339645663376899452
167882 2 17833263504351073815
17627616 140 17544473519186931268
18336668 15 17968937616779323116
19611394 137 17610349607889499850
19930381 70 17761210316432263035
21033648 29 17917137394727681146
21033650 10 18046378287209907390
21344244 246 17619332652311549311
21796203 349 17829934049312575376
22113638 7 18196366137859633734
22440779 20 16892370455576012514
23559900 14 18194672886206744827
23845131 108 17616538354946428497
25019877 29 17059776753207866958
3524813 1 18131060559008049514
469060 322 18339656597683420051
474144 1 17897455114773214188
508706 21 18052815854411581478
5385378 56 17545049655428780611
57091435 65 17832428978629306608
6371009 1 17399212176101476465
6700243 42 17842033024305348494
9777508 108 18123184598457298536

> <PUBCHEM_SHAPE_MULTIPOLES>
504.29
8.7
6.92
0.82
5.53
9.45
-0.01
-7.98
1.81
-1.58
-0.78
0.34
0.13
0.14

> <PUBCHEM_SHAPE_SELFOVERLAP>
1118.837

> <PUBCHEM_SHAPE_VOLUME>
268.7

> <PUBCHEM_COORDINATE_TYPE>
2
5
10

$$$$