150
 OpenBabel03292022013D

 81 83  0  0  1  0  0  0  0  0999 V2000
    1.7956   -1.5592    2.1174 C   0  0  0  0  0  0  0  0  0  0  0  0
    2.5757   -1.0320    1.0523 O   0  0  0  0  0  0  0  0  0  0  0  0
    3.1805   -1.9318    0.2170 C   0  0  0  0  0  0  0  0  0  0  0  0
    3.9780   -1.3554   -0.7725 C   0  0  0  0  0  0  0  0  0  0  0  0
    4.6386   -2.1539   -1.7061 C   0  0  0  0  0  0  0  0  0  0  0  0
    4.5223   -3.5434   -1.6420 C   0  0  0  0  0  0  0  0  0  0  0  0
    5.1892   -4.3847   -2.5548 N   0  0  0  0  0  0  0  0  0  0  0  0
    5.3563   -4.1070   -3.8958 C   0  0  0  0  0  0  0  0  0  0  0  0
    4.9685   -3.0924   -4.4676 O   0  0  0  0  0  0  0  0  0  0  0  0
    5.9730   -5.2155   -4.6345 C   0  0  0  0  0  0  0  0  0  0  0  0
    6.0147   -5.2674   -6.0146 C   0  0  0  0  0  0  0  0  0  0  0  0
    6.7090   -6.7339   -6.5364 S   0  0  0  0  0  0  0  0  0  0  0  0
    6.9241   -7.2168   -4.8932 C   0  0  0  0  0  0  0  0  0  0  0  0
    7.4497   -8.6125   -4.5785 C   0  0  1  0  0  0  0  0  0  0  0  0
    8.8955   -8.6117   -4.7085 N   0  0  0  0  0  0  0  0  0  0  0  0
    9.5264   -8.9146   -5.8935 C   0  0  0  0  0  0  0  0  0  0  0  0
    8.9307   -9.1913   -6.9283 O   0  0  0  0  0  0  0  0  0  0  0  0
   10.9872   -8.9466   -5.8011 C   0  0  0  0  0  0  0  0  0  0  0  0
   11.8176   -9.2119   -6.8779 C   0  0  0  0  0  0  0  0  0  0  0  0
   13.4320   -9.3962   -6.3534 S   0  0  0  0  0  0  0  0  0  0  0  0
   12.9281   -9.1244   -4.7264 C   0  0  0  0  0  0  0  0  0  0  0  0
   13.8916   -9.3767   -3.5762 C   0  0  1  0  0  0  0  0  0  0  0  0
   14.7326   -8.2009   -3.3939 N   0  0  0  0  0  0  0  0  0  0  0  0
   15.9389   -8.1091   -4.0335 C   0  0  0  0  0  0  0  0  0  0  0  0
   16.4030   -8.9943   -4.7287 O   0  0  0  0  0  0  0  0  0  0  0  0
   16.5245   -6.9093   -3.7810 O   0  0  0  0  0  0  0  0  0  0  0  0
   17.8261   -6.6239   -4.3706 C   0  0  0  0  0  0  0  0  0  0  0  0
   17.7110   -6.4752   -5.8936 C   0  0  0  0  0  0  0  0  0  0  0  0
   18.2703   -5.2722   -3.7861 C   0  0  0  0  0  0  0  0  0  0  0  0
   18.8826   -7.6677   -3.9747 C   0  0  0  0  0  0  0  0  0  0  0  0
   13.1281   -9.7732   -2.2804 C   0  0  0  0  0  0  0  0  0  0  0  0
   12.3341  -11.0786   -2.4735 C   0  0  0  0  0  0  0  0  0  0  0  0
   14.0779   -9.9667   -1.0933 C   0  0  0  0  0  0  0  0  0  0  0  0
   11.6552   -8.7972   -4.5832 N   0  0  0  0  0  0  0  0  0  0  0  0
    6.9982   -9.1011   -3.1740 C   0  0  0  0  0  0  0  0  0  0  0  0
    5.4669   -9.1597   -3.0514 C   0  0  0  0  0  0  0  0  0  0  0  0
    7.5540  -10.4967   -2.8542 C   0  0  0  0  0  0  0  0  0  0  0  0
    6.5342   -6.3264   -3.9967 N   0  0  0  0  0  0  0  0  0  0  0  0
    3.7384   -4.1367   -0.6364 C   0  0  0  0  0  0  0  0  0  0  0  0
    3.6586   -5.5089   -0.6866 O   0  0  0  0  0  0  0  0  0  0  0  0
    2.9688   -6.1583    0.3725 C   0  0  0  0  0  0  0  0  0  0  0  0
    3.0544   -3.3234    0.2776 C   0  0  0  0  0  0  0  0  0  0  0  0
    1.3949   -0.7164    2.6886 H   0  0  0  0  0  0  0  0  0  0  0  0
    2.4110   -2.1599    2.7952 H   0  0  0  0  0  0  0  0  0  0  0  0
    0.9461   -2.1361    1.7375 H   0  0  0  0  0  0  0  0  0  0  0  0
    4.0862   -0.2742   -0.8200 H   0  0  0  0  0  0  0  0  0  0  0  0
    5.2623   -1.6768   -2.4573 H   0  0  0  0  0  0  0  0  0  0  0  0
    5.2779   -5.3634   -2.2944 H   0  0  0  0  0  0  0  0  0  0  0  0
    5.6408   -4.5350   -6.7163 H   0  0  0  0  0  0  0  0  0  0  0  0
    7.0405   -9.3110   -5.3235 H   0  0  0  0  0  0  0  0  0  0  0  0
    9.4880   -8.3085   -3.9390 H   0  0  0  0  0  0  0  0  0  0  0  0
   11.5397   -9.3574   -7.9128 H   0  0  0  0  0  0  0  0  0  0  0  0
   14.5375  -10.2241   -3.8438 H   0  0  0  0  0  0  0  0  0  0  0  0
   14.3584   -7.3551   -2.9880 H   0  0  0  0  0  0  0  0  0  0  0  0
   17.0114   -5.6718   -6.1523 H   0  0  0  0  0  0  0  0  0  0  0  0
   17.3294   -7.3822   -6.3706 H   0  0  0  0  0  0  0  0  0  0  0  0
   18.6818   -6.2431   -6.3452 H   0  0  0  0  0  0  0  0  0  0  0  0
   17.5379   -4.4866   -4.0018 H   0  0  0  0  0  0  0  0  0  0  0  0
   19.2403   -4.9600   -4.1903 H   0  0  0  0  0  0  0  0  0  0  0  0
   18.3570   -5.3282   -2.6949 H   0  0  0  0  0  0  0  0  0  0  0  0
   18.6743   -8.6579   -4.3878 H   0  0  0  0  0  0  0  0  0  0  0  0
   18.9211   -7.7840   -2.8858 H   0  0  0  0  0  0  0  0  0  0  0  0
   19.8780   -7.3803   -4.3298 H   0  0  0  0  0  0  0  0  0  0  0  0
   12.4210   -8.9760   -2.0140 H   0  0  0  0  0  0  0  0  0  0  0  0
   13.0010  -11.9110   -2.7247 H   0  0  0  0  0  0  0  0  0  0  0  0
   11.5886  -10.9996   -3.2699 H   0  0  0  0  0  0  0  0  0  0  0  0
   11.7935  -11.3428   -1.5585 H   0  0  0  0  0  0  0  0  0  0  0  0
   14.8063  -10.7595   -1.2948 H   0  0  0  0  0  0  0  0  0  0  0  0
   13.5157  -10.2479   -0.1957 H   0  0  0  0  0  0  0  0  0  0  0  0
   14.6243   -9.0478   -0.8614 H   0  0  0  0  0  0  0  0  0  0  0  0
    7.3791   -8.4092   -2.4105 H   0  0  0  0  0  0  0  0  0  0  0  0
    5.0398   -9.8509   -3.7859 H   0  0  0  0  0  0  0  0  0  0  0  0
    5.0007   -8.1825   -3.2014 H   0  0  0  0  0  0  0  0  0  0  0  0
    5.1731   -9.5013   -2.0532 H   0  0  0  0  0  0  0  0  0  0  0  0
    7.2006  -11.2389   -3.5783 H   0  0  0  0  0  0  0  0  0  0  0  0
    7.2296  -10.8196   -1.8586 H   0  0  0  0  0  0  0  0  0  0  0  0
    8.6484  -10.5088   -2.8585 H   0  0  0  0  0  0  0  0  0  0  0  0
    2.9950   -7.2343    0.1759 H   0  0  0  0  0  0  0  0  0  0  0  0
    1.9163   -5.8591    0.4143 H   0  0  0  0  0  0  0  0  0  0  0  0
    3.4726   -5.9769    1.3270 H   0  0  0  0  0  0  0  0  0  0  0  0
    2.4099   -3.7696    1.0222 H   0  0  0  0  0  0  0  0  0  0  0  0
  1  2  1  0  0  0  0
  1 43  1  0  0  0  0
  1 44  1  0  0  0  0
  1 45  1  0  0  0  0
  2  3  1  0  0  0  0
  3  4  1  0  0  0  0
  3 42  2  0  0  0  0
  4  5  2  0  0  0  0
  4 46  1  0  0  0  0
  5  6  1  0  0  0  0
  5 47  1  0  0  0  0
  6  7  1  0  0  0  0
  6 39  2  0  0  0  0
  7  8  1  0  0  0  0
  7 48  1  0  0  0  0
  8  9  2  0  0  0  0
  8 10  1  0  0  0  0
 10 11  2  0  0  0  0
 10 38  1  0  0  0  0
 11 12  1  0  0  0  0
 11 49  1  0  0  0  0
 12 13  1  0  0  0  0
 13 14  1  0  0  0  0
 13 38  2  0  0  0  0
 14 15  1  0  0  0  0
 14 35  1  0  0  0  0
 14 50  1  6  0  0  0
 15 16  1  0  0  0  0
 15 51  1  0  0  0  0
 16 17  2  0  0  0  0
 16 18  1  0  0  0  0
 18 19  2  0  0  0  0
 18 34  1  0  0  0  0
 19 20  1  0  0  0  0
 19 52  1  0  0  0  0
 20 21  1  0  0  0  0
 21 22  1  0  0  0  0
 21 34  2  0  0  0  0
 22 23  1  0  0  0  0
 22 31  1  0  0  0  0
 22 53  1  6  0  0  0
 23 24  1  0  0  0  0
 23 54  1  0  0  0  0
 24 25  2  0  0  0  0
 24 26  1  0  0  0  0
 26 27  1  0  0  0  0
 27 28  1  0  0  0  0
 27 29  1  0  0  0  0
 27 30  1  0  0  0  0
 28 55  1  0  0  0  0
 28 56  1  0  0  0  0
 28 57  1  0  0  0  0
 29 58  1  0  0  0  0
 29 59  1  0  0  0  0
 29 60  1  0  0  0  0
 30 61  1  0  0  0  0
 30 62  1  0  0  0  0
 30 63  1  0  0  0  0
 31 32  1  0  0  0  0
 31 33  1  0  0  0  0
 31 64  1  0  0  0  0
 32 65  1  0  0  0  0
 32 66  1  0  0  0  0
 32 67  1  0  0  0  0
 33 68  1  0  0  0  0
 33 69  1  0  0  0  0
 33 70  1  0  0  0  0
 35 36  1  0  0  0  0
 35 37  1  0  0  0  0
 35 71  1  0  0  0  0
 36 72  1  0  0  0  0
 36 73  1  0  0  0  0
 36 74  1  0  0  0  0
 37 75  1  0  0  0  0
 37 76  1  0  0  0  0
 37 77  1  0  0  0  0
 39 40  1  0  0  0  0
 39 42  1  0  0  0  0
 40 41  1  0  0  0  0
 41 78  1  0  0  0  0
 41 79  1  0  0  0  0
 41 80  1  0  0  0  0
 42 81  1  0  0  0  0
M  END
>  <Energy>
20.3942

$$$$