1418188
  -OEChem-03242010103D

 43 46  0     0  0  0  0  0  0999 V2000
   -3.2262   -1.4292    1.3829 O   0  0  0  0  0  0  0  0  0  0  0  0
   -5.3263   -0.4874    1.4193 O   0  0  0  0  0  0  0  0  0  0  0  0
   -0.3734    2.0032   -0.8246 N   0  0  0  0  0  0  0  0  0  0  0  0
    0.7348   -0.0578   -0.5778 N   0  0  0  0  0  0  0  0  0  0  0  0
    2.9643   -0.1532    0.3314 N   0  0  0  0  0  0  0  0  0  0  0  0
    1.8401   -4.9213   -0.6167 N   0  0  0  0  0  0  0  0  0  0  0  0
    1.8693    1.9673    0.0961 C   0  0  0  0  0  0  0  0  0  0  0  0
    0.7769    1.2791   -0.4242 C   0  0  0  0  0  0  0  0  0  0  0  0
    2.9729    1.1840    0.4713 C   0  0  0  0  0  0  0  0  0  0  0  0
   -1.7374    1.6723   -0.8569 C   0  0  0  0  0  0  0  0  0  0  0  0
    1.8459   -0.7014   -0.1855 C   0  0  0  0  0  0  0  0  0  0  0  0
    1.8895    3.3647    0.2467 C   0  0  0  0  0  0  0  0  0  0  0  0
    4.0851    1.8373    0.9965 C   0  0  0  0  0  0  0  0  0  0  0  0
    1.8439   -2.1336   -0.3322 C   0  0  0  0  0  0  0  0  0  0  0  0
   -2.2641    0.7646    0.0670 C   0  0  0  0  0  0  0  0  0  0  0  0
    3.0141    3.9914    0.7740 C   0  0  0  0  0  0  0  0  0  0  0  0
   -2.5787    2.2476   -1.8140 C   0  0  0  0  0  0  0  0  0  0  0  0
    4.1130    3.2265    1.1493 C   0  0  0  0  0  0  0  0  0  0  0  0
   -3.6191    0.4353    0.0340 C   0  0  0  0  0  0  0  0  0  0  0  0
   -3.9338    1.9185   -1.8470 C   0  0  0  0  0  0  0  0  0  0  0  0
   -4.4539    1.0123   -0.9230 C   0  0  0  0  0  0  0  0  0  0  0  0
    3.0346   -2.8202   -0.5645 C   0  0  0  0  0  0  0  0  0  0  0  0
    0.6512   -2.8496   -0.2432 C   0  0  0  0  0  0  0  0  0  0  0  0
   -4.1624   -0.5088    0.9977 C   0  0  0  0  0  0  0  0  0  0  0  0
    2.9795   -4.1981   -0.6978 C   0  0  0  0  0  0  0  0  0  0  0  0
    0.7026   -4.2263   -0.3909 C   0  0  0  0  0  0  0  0  0  0  0  0
   -3.6424   -2.4171    2.3319 C   0  0  0  0  0  0  0  0  0  0  0  0
   -0.1486    2.8308   -1.3701 H   0  0  0  0  0  0  0  0  0  0  0  0
    1.0450    3.9902   -0.0287 H   0  0  0  0  0  0  0  0  0  0  0  0
    4.9581    1.2614    1.2978 H   0  0  0  0  0  0  0  0  0  0  0  0
   -1.6158    0.3377    0.8288 H   0  0  0  0  0  0  0  0  0  0  0  0
    3.0333    5.0703    0.8938 H   0  0  0  0  0  0  0  0  0  0  0  0
   -2.1872    2.9545   -2.5414 H   0  0  0  0  0  0  0  0  0  0  0  0
    4.9948    3.7078    1.5624 H   0  0  0  0  0  0  0  0  0  0  0  0
   -4.5835    2.3670   -2.5928 H   0  0  0  0  0  0  0  0  0  0  0  0
   -5.5114    0.7647   -0.9645 H   0  0  0  0  0  0  0  0  0  0  0  0
    3.9915   -2.3155   -0.6522 H   0  0  0  0  0  0  0  0  0  0  0  0
   -0.3044   -2.3705   -0.0546 H   0  0  0  0  0  0  0  0  0  0  0  0
    3.8799   -4.7750   -0.8816 H   0  0  0  0  0  0  0  0  0  0  0  0
   -0.1995   -4.8259   -0.3269 H   0  0  0  0  0  0  0  0  0  0  0  0
   -4.4610   -3.0145    1.9200 H   0  0  0  0  0  0  0  0  0  0  0  0
   -3.9461   -1.9369    3.2667 H   0  0  0  0  0  0  0  0  0  0  0  0
   -2.7926   -3.0748    2.5330 H   0  0  0  0  0  0  0  0  0  0  0  0
  1 24  1  0  0  0  0
  1 27  1  0  0  0  0
  2 24  2  0  0  0  0
  3  8  1  0  0  0  0
  3 10  1  0  0  0  0
  3 28  1  0  0  0  0
  4  8  2  0  0  0  0
  4 11  1  0  0  0  0
  5  9  1  0  0  0  0
  5 11  2  0  0  0  0
  6 25  2  0  0  0  0
  6 26  1  0  0  0  0
  7  8  1  0  0  0  0
  7  9  1  0  0  0  0
  7 12  2  0  0  0  0
  9 13  2  0  0  0  0
 10 15  1  0  0  0  0
 10 17  2  0  0  0  0
 11 14  1  0  0  0  0
 12 16  1  0  0  0  0
 12 29  1  0  0  0  0
 13 18  1  0  0  0  0
 13 30  1  0  0  0  0
 14 22  2  0  0  0  0
 14 23  1  0  0  0  0
 15 19  2  0  0  0  0
 15 31  1  0  0  0  0
 16 18  2  0  0  0  0
 16 32  1  0  0  0  0
 17 20  1  0  0  0  0
 17 33  1  0  0  0  0
 18 34  1  0  0  0  0
 19 21  1  0  0  0  0
 19 24  1  0  0  0  0
 20 21  2  0  0  0  0
 20 35  1  0  0  0  0
 21 36  1  0  0  0  0
 22 25  1  0  0  0  0
 22 37  1  0  0  0  0
 23 26  2  0  0  0  0
 23 38  1  0  0  0  0
 25 39  1  0  0  0  0
 26 40  1  0  0  0  0
 27 41  1  0  0  0  0
 27 42  1  0  0  0  0
 27 43  1  0  0  0  0
M  END
> <PUBCHEM_COMPOUND_CID>
1418188

> <PUBCHEM_CONFORMER_RMSD>
0.8

> <PUBCHEM_CONFORMER_DIVERSEORDER>
1
44
42
20
47
15
59
10
55
34
12
60
30
46
29
48
37
18
11
45
50
19
16
23
36
43
35
49
2
38
54
3
41
17
39
4
58
40
27
32
31
26
22
28
24
57
51
8
53
7
21
33
14
56
52
13
6
5
25
9

> <PUBCHEM_MMFF94_PARTIAL_CHARGES>
38
1 -0.43
10 0.1
11 0.62
12 -0.15
13 -0.15
15 -0.15
16 -0.15
17 -0.15
18 -0.15
19 0.09
2 -0.57
20 -0.15
21 -0.15
22 -0.15
23 -0.15
24 0.63
25 0.16
26 0.16
27 0.28
28 0.4
29 0.15
3 -0.6
30 0.15
31 0.15
32 0.15
33 0.15
34 0.15
35 0.15
36 0.15
37 0.15
38 0.15
39 0.15
4 -0.62
40 0.15
5 -0.62
6 -0.62
8 0.41
9 0.31

> <PUBCHEM_EFFECTIVE_ROTOR_COUNT>
5

> <PUBCHEM_PHARMACOPHORE_FEATURES>
9
1 2 acceptor
1 3 donor
1 6 acceptor
3 3 4 8 cation
3 4 5 11 cation
6 10 15 17 19 20 21 rings
6 4 5 7 8 9 11 rings
6 6 14 22 23 25 26 rings
6 7 9 12 13 16 18 rings

> <PUBCHEM_HEAVY_ATOM_COUNT>
27

> <PUBCHEM_ATOM_DEF_STEREO_COUNT>
0

> <PUBCHEM_ATOM_UDEF_STEREO_COUNT>
0

> <PUBCHEM_BOND_DEF_STEREO_COUNT>
0

> <PUBCHEM_BOND_UDEF_STEREO_COUNT>
0

> <PUBCHEM_ISOTOPIC_ATOM_COUNT>
0

> <PUBCHEM_COMPONENT_COUNT>
1

> <PUBCHEM_CACTVS_TAUTO_COUNT>
3

> <PUBCHEM_CONFORMER_ID>
0015A3CC00000001

> <PUBCHEM_MMFF94_ENERGY>
100.2054

> <PUBCHEM_FEATURE_SELFOVERLAP>
45.844

> <PUBCHEM_SHAPE_FINGERPRINT>
10074138 170 17548100765524546896
10411042 1 17693926402482231710
10815517 723 17549551055273480710
114674 6 18334301933238586675
12107183 9 17626104136389407865
12553582 1 17619348706186533966
12788726 201 16825020742672789747
13402501 40 18189907422180945323
13533116 47 18340768127368369229
138480 1 18053089641185705788
14363568 33 18341344288002857126
14659021 117 17040912063143677642
14725015 67 17968380053079316803
14866123 147 18052247690657811682
14932701 244 14207094900089323743
15351339 4 16746204459860553209
15968369 26 18190726554206335940
17138139 8 16982328322593967429
17913733 40 18271799176982006896
17974551 9 17771349664898539265
19611394 137 18048305653868786570
1979834 28 17974879425224552939
20028762 73 18057036037188690070
20693207 138 18116434735091911909
20832881 197 17689428283602597285
21033648 29 18126264557791837952
21120745 212 17480313266927681324
21133410 32 16738946789374638266
21133410 38 18057615454975761995
21202864 24 17835240421535560392
22182313 1 18113617864043613757
22440779 20 17104019795787544337
23559900 14 18193263109908939461
238918 7 18335700602070216258
4403749 210 17977368753155760201
469060 322 18050272967532006047
5047190 48 17975703005939502580
5309563 4 17982163418463595886
563151 74 18201172017923743737
613672 6 17834942084396173046
6371380 46 17902234404251831041
6438718 38 17268358635912978902
6442390 28 18196096774970460804
66674814 147 17403438068135645215
6669772 16 18272088332008888028
7399639 24 18264777721654952027
9709674 26 18335413514014185917
9777508 108 17693925702613734280

> <PUBCHEM_SHAPE_MULTIPOLES>
523.98
9.09
6.37
1.51
8.25
6.01
0.35
-3.03
2.65
-7.88
-0.62
2
0
4.5

> <PUBCHEM_SHAPE_SELFOVERLAP>
1165.372

> <PUBCHEM_SHAPE_VOLUME>
275.4

> <PUBCHEM_COORDINATE_TYPE>
2
5
10

$$$$