15993184
  -OEChem-03242010103D

 50 53  0     0  0  0  0  0  0999 V2000
    3.9191   -1.8727    0.4272 O   0  0  0  0  0  0  0  0  0  0  0  0
    5.8434    0.0658   -0.0884 O   0  0  0  0  0  0  0  0  0  0  0  0
   -1.3749   -4.1657    1.4934 O   0  0  0  0  0  0  0  0  0  0  0  0
   -2.6931   -0.1413   -0.8013 N   0  0  0  0  0  0  0  0  0  0  0  0
   -0.4494    0.4687   -0.4405 N   0  0  0  0  0  0  0  0  0  0  0  0
    0.1172    2.6939    0.2905 N   0  0  0  0  0  0  0  0  0  0  0  0
   -2.1819    2.1121   -0.0659 C   0  0  0  0  0  0  0  0  0  0  0  0
   -1.7432    0.8407   -0.4250 C   0  0  0  0  0  0  0  0  0  0  0  0
   -1.1841    3.0321    0.2950 C   0  0  0  0  0  0  0  0  0  0  0  0
    0.4138    1.4308   -0.0771 C   0  0  0  0  0  0  0  0  0  0  0  0
    1.8090    1.0761   -0.0793 C   0  0  0  0  0  0  0  0  0  0  0  0
   -3.5394    2.4769   -0.0575 C   0  0  0  0  0  0  0  0  0  0  0  0
   -2.7036   -1.5408   -0.6898 C   0  0  0  0  0  0  0  0  0  0  0  0
   -1.5845    4.3150    0.6606 C   0  0  0  0  0  0  0  0  0  0  0  0
    2.2019   -0.2413    0.1776 C   0  0  0  0  0  0  0  0  0  0  0  0
    2.7821    2.0466   -0.3384 C   0  0  0  0  0  0  0  0  0  0  0  0
    3.5538   -0.5847    0.1753 C   0  0  0  0  0  0  0  0  0  0  0  0
   -3.9113    3.7657    0.3120 C   0  0  0  0  0  0  0  0  0  0  0  0
   -2.9325    4.6855    0.6713 C   0  0  0  0  0  0  0  0  0  0  0  0
    4.5198    0.3876   -0.0840 C   0  0  0  0  0  0  0  0  0  0  0  0
    4.1340    1.7033   -0.3407 C   0  0  0  0  0  0  0  0  0  0  0  0
   -2.0264   -2.1685    0.3600 C   0  0  0  0  0  0  0  0  0  0  0  0
   -3.3911   -2.3164   -1.6282 C   0  0  0  0  0  0  0  0  0  0  0  0
   -2.0367   -3.5589    0.4704 C   0  0  0  0  0  0  0  0  0  0  0  0
   -3.4013   -3.7067   -1.5178 C   0  0  0  0  0  0  0  0  0  0  0  0
   -2.7241   -4.3280   -0.4684 C   0  0  0  0  0  0  0  0  0  0  0  0
    2.8708   -2.8055    0.6826 C   0  0  0  0  0  0  0  0  0  0  0  0
    6.4051   -0.3505   -1.3316 C   0  0  0  0  0  0  0  0  0  0  0  0
   -0.6926   -3.3198    2.4178 C   0  0  0  0  0  0  0  0  0  0  0  0
   -3.3961    0.2152   -1.4429 H   0  0  0  0  0  0  0  0  0  0  0  0
   -4.3289    1.7802   -0.3247 H   0  0  0  0  0  0  0  0  0  0  0  0
   -0.8379    5.0537    0.9462 H   0  0  0  0  0  0  0  0  0  0  0  0
    1.4222   -0.9647    0.3913 H   0  0  0  0  0  0  0  0  0  0  0  0
    2.5142    3.0787   -0.5519 H   0  0  0  0  0  0  0  0  0  0  0  0
   -4.9588    4.0510    0.3216 H   0  0  0  0  0  0  0  0  0  0  0  0
   -3.2141    5.6936    0.9615 H   0  0  0  0  0  0  0  0  0  0  0  0
    4.8813    2.4653   -0.5448 H   0  0  0  0  0  0  0  0  0  0  0  0
   -1.5227   -1.5323    1.0796 H   0  0  0  0  0  0  0  0  0  0  0  0
   -3.9225   -1.8462   -2.4519 H   0  0  0  0  0  0  0  0  0  0  0  0
   -3.9363   -4.3058   -2.2490 H   0  0  0  0  0  0  0  0  0  0  0  0
   -2.7354   -5.4115   -0.3878 H   0  0  0  0  0  0  0  0  0  0  0  0
    3.3406   -3.7833    0.8325 H   0  0  0  0  0  0  0  0  0  0  0  0
    2.3465   -2.5623    1.6115 H   0  0  0  0  0  0  0  0  0  0  0  0
    2.1951   -2.9085   -0.1732 H   0  0  0  0  0  0  0  0  0  0  0  0
    5.9038   -1.2515   -1.6989 H   0  0  0  0  0  0  0  0  0  0  0  0
    6.3296    0.4507   -2.0736 H   0  0  0  0  0  0  0  0  0  0  0  0
    7.4621   -0.5796   -1.1705 H   0  0  0  0  0  0  0  0  0  0  0  0
   -1.3955   -2.6946    2.9789 H   0  0  0  0  0  0  0  0  0  0  0  0
   -0.1908   -3.9693    3.1424 H   0  0  0  0  0  0  0  0  0  0  0  0
    0.0836   -2.7268    1.9274 H   0  0  0  0  0  0  0  0  0  0  0  0
  1 17  1  0  0  0  0
  1 27  1  0  0  0  0
  2 20  1  0  0  0  0
  2 28  1  0  0  0  0
  3 24  1  0  0  0  0
  3 29  1  0  0  0  0
  4  8  1  0  0  0  0
  4 13  1  0  0  0  0
  4 30  1  0  0  0  0
  5  8  2  0  0  0  0
  5 10  1  0  0  0  0
  6  9  1  0  0  0  0
  6 10  2  0  0  0  0
  7  8  1  0  0  0  0
  7  9  1  0  0  0  0
  7 12  2  0  0  0  0
  9 14  2  0  0  0  0
 10 11  1  0  0  0  0
 11 15  2  0  0  0  0
 11 16  1  0  0  0  0
 12 18  1  0  0  0  0
 12 31  1  0  0  0  0
 13 22  2  0  0  0  0
 13 23  1  0  0  0  0
 14 19  1  0  0  0  0
 14 32  1  0  0  0  0
 15 17  1  0  0  0  0
 15 33  1  0  0  0  0
 16 21  2  0  0  0  0
 16 34  1  0  0  0  0
 17 20  2  0  0  0  0
 18 19  2  0  0  0  0
 18 35  1  0  0  0  0
 19 36  1  0  0  0  0
 20 21  1  0  0  0  0
 21 37  1  0  0  0  0
 22 24  1  0  0  0  0
 22 38  1  0  0  0  0
 23 25  2  0  0  0  0
 23 39  1  0  0  0  0
 24 26  2  0  0  0  0
 25 26  1  0  0  0  0
 25 40  1  0  0  0  0
 26 41  1  0  0  0  0
 27 42  1  0  0  0  0
 27 43  1  0  0  0  0
 27 44  1  0  0  0  0
 28 45  1  0  0  0  0
 28 46  1  0  0  0  0
 28 47  1  0  0  0  0
 29 48  1  0  0  0  0
 29 49  1  0  0  0  0
 29 50  1  0  0  0  0
M  END
> <PUBCHEM_COMPOUND_CID>
15993184

> <PUBCHEM_CONFORMER_RMSD>
0.8

> <PUBCHEM_CONFORMER_DIVERSEORDER>
66
96
51
74
18
65
117
31
35
83
43
92
46
62
81
58
109
69
121
80
124
123
79
20
26
70
10
33
94
4
78
36
75
68
125
122
91
8
71
14
85
49
105
27
77
126
72
13
34
76
40
22
60
73
127
56
54
107
2
48
17
110
16
44
55
5
93
59
29
38
1
50
88
95
9
42
37
118
63
108
21
89
113
3
111
90
11
23
41
100
7
106
61
24
15
99
12
64
39
67
98
97
25
116
47
57
86
6
30
114
53
28
45
84
115
112
32
87
103
52
104
19
101
120
82
102
119

> <PUBCHEM_MMFF94_PARTIAL_CHARGES>
39
1 -0.36
10 0.62
12 -0.15
13 0.1
14 -0.15
15 -0.15
16 -0.15
17 0.08
18 -0.15
19 -0.15
2 -0.36
20 0.08
21 -0.15
22 -0.15
23 -0.15
24 0.08
25 -0.15
26 -0.15
27 0.28
28 0.28
29 0.28
3 -0.36
30 0.4
31 0.15
32 0.15
33 0.15
34 0.15
35 0.15
36 0.15
37 0.15
38 0.15
39 0.15
4 -0.6
40 0.15
41 0.15
5 -0.62
6 -0.62
8 0.41
9 0.31

> <PUBCHEM_EFFECTIVE_ROTOR_COUNT>
6

> <PUBCHEM_PHARMACOPHORE_FEATURES>
10
1 1 acceptor
1 2 acceptor
1 3 acceptor
1 4 donor
3 4 5 8 cation
3 5 6 10 cation
6 11 15 16 17 20 21 rings
6 13 22 23 24 25 26 rings
6 5 6 7 8 9 10 rings
6 7 9 12 14 18 19 rings

> <PUBCHEM_HEAVY_ATOM_COUNT>
29

> <PUBCHEM_ATOM_DEF_STEREO_COUNT>
0

> <PUBCHEM_ATOM_UDEF_STEREO_COUNT>
0

> <PUBCHEM_BOND_DEF_STEREO_COUNT>
0

> <PUBCHEM_BOND_UDEF_STEREO_COUNT>
0

> <PUBCHEM_ISOTOPIC_ATOM_COUNT>
0

> <PUBCHEM_COMPONENT_COUNT>
1

> <PUBCHEM_CACTVS_TAUTO_COUNT>
3

> <PUBCHEM_CONFORMER_ID>
00F4096000000042

> <PUBCHEM_MMFF94_ENERGY>
131.2575

> <PUBCHEM_FEATURE_SELFOVERLAP>
50.923

> <PUBCHEM_SHAPE_FINGERPRINT>
10411042 1 18125436668595694735
10616163 171 18413106156562689142
10940486 97 18335990762140920588
1100329 8 18049154471758644610
11227688 84 17619632822810816542
12553582 1 18265328602449734067
12788726 201 18409157831618885603
138480 1 16539049837457421397
14068700 686 18128249185597420784
14363568 33 17109894881161118410
14659021 117 18338225076667626176
14790565 3 17979637835980836064
14844126 61 18410291410874356729
14866123 147 18412545418765403267
14931854 50 18187911928482520222
15042514 8 18341898519468144533
15250474 111 18336536137061512838
15351339 4 18116970300819780099
15463212 79 18262512572634829640
15927050 60 18197499515700353087
16628084 112 18264758875565278263
19319366 153 17174636952299959770
20028762 73 17838889335682250189
21133410 171 17474610357296668838
21133410 32 16011289148298660962
23558518 356 18408323289508344934
23559900 14 17975118052937208893
4073 2 18412266113274502908
463206 1 17976816815603954910
5309563 4 17980196705768119503
6004065 56 17404282492316287655
613672 6 17908681158035351055

> <PUBCHEM_SHAPE_MULTIPOLES>
564.26
9.8
7.28
1.26
16.77
0.34
-0.3
0.37
3.04
-11.07
-1.9
-0.52
1.52
-1.74

> <PUBCHEM_SHAPE_SELFOVERLAP>
1243.633

> <PUBCHEM_SHAPE_VOLUME>
302.2

> <PUBCHEM_COORDINATE_TYPE>
2
5
10

$$$$