151
 OpenBabel03292022013D

 46 49  0  0  0  0  0  0  0  0999 V2000
    2.3137   -1.7399    3.0494 C   0  0  0  0  0  0  0  0  0  0  0  0
    3.6344   -2.2196    2.8441 O   0  0  0  0  0  0  0  0  0  0  0  0
    3.7684   -3.5337    2.4840 C   0  0  0  0  0  0  0  0  0  0  0  0
    5.0904   -3.9619    2.3578 C   0  0  0  0  0  0  0  0  0  0  0  0
    5.3809   -5.2793    2.0083 C   0  0  0  0  0  0  0  0  0  0  0  0
    4.3391   -6.1771    1.7816 C   0  0  0  0  0  0  0  0  0  0  0  0
    3.0024   -5.7636    1.8802 C   0  0  0  0  0  0  0  0  0  0  0  0
    1.9685   -6.6949    1.6010 N   0  0  0  0  0  0  0  0  0  0  0  0
    0.9415   -6.4982    0.6279 C   0  0  0  0  0  0  0  0  0  0  0  0
    0.8661   -5.3217   -0.0141 N   0  0  0  0  0  0  0  0  0  0  0  0
   -0.0629   -5.1879   -0.9708 C   0  0  0  0  0  0  0  0  0  0  0  0
   -0.2892   -3.8393   -1.5250 C   0  0  0  0  0  0  0  0  0  0  0  0
   -1.3257   -3.5887   -2.4441 C   0  0  0  0  0  0  0  0  0  0  0  0
   -1.6112   -2.2944   -2.8854 C   0  0  0  0  0  0  0  0  0  0  0  0
   -0.8525   -1.2179   -2.4302 C   0  0  0  0  0  0  0  0  0  0  0  0
    0.2072   -1.4391   -1.5534 C   0  0  0  0  0  0  0  0  0  0  0  0
    1.0026   -0.4585   -1.0260 O   0  0  0  0  0  0  0  0  0  0  0  0
    1.2294    0.6559   -1.8812 C   0  0  0  0  0  0  0  0  0  0  0  0
    0.4752   -2.7349   -1.1023 C   0  0  0  0  0  0  0  0  0  0  0  0
   -0.8790   -6.1741   -1.3770 N   0  0  0  0  0  0  0  0  0  0  0  0
   -0.8302   -7.3269   -0.7097 C   0  0  0  0  0  0  0  0  0  0  0  0
   -1.6969   -8.3442   -1.0881 C   0  0  0  0  0  0  0  0  0  0  0  0
   -1.7628   -9.5545   -0.3938 C   0  0  0  0  0  0  0  0  0  0  0  0
   -0.9455   -9.7597    0.7085 C   0  0  0  0  0  0  0  0  0  0  0  0
   -0.0415   -8.7680    1.0833 C   0  0  0  0  0  0  0  0  0  0  0  0
    0.0392   -7.5471    0.3645 C   0  0  0  0  0  0  0  0  0  0  0  0
    2.7278   -4.4349    2.2413 C   0  0  0  0  0  0  0  0  0  0  0  0
    2.3848   -0.6896    3.3500 H   0  0  0  0  0  0  0  0  0  0  0  0
    1.8193   -2.2840    3.8612 H   0  0  0  0  0  0  0  0  0  0  0  0
    1.7283   -1.7834    2.1260 H   0  0  0  0  0  0  0  0  0  0  0  0
    5.9034   -3.2592    2.5312 H   0  0  0  0  0  0  0  0  0  0  0  0
    6.4125   -5.6008    1.9065 H   0  0  0  0  0  0  0  0  0  0  0  0
    4.5848   -7.1970    1.4982 H   0  0  0  0  0  0  0  0  0  0  0  0
    2.3678   -7.6146    1.4437 H   0  0  0  0  0  0  0  0  0  0  0  0
   -1.9454   -4.4098   -2.8021 H   0  0  0  0  0  0  0  0  0  0  0  0
   -2.4415   -2.1277   -3.5668 H   0  0  0  0  0  0  0  0  0  0  0  0
   -1.1232   -0.2189   -2.7539 H   0  0  0  0  0  0  0  0  0  0  0  0
    2.0316    1.2556   -1.4402 H   0  0  0  0  0  0  0  0  0  0  0  0
    0.3403    1.2905   -1.9483 H   0  0  0  0  0  0  0  0  0  0  0  0
    1.5590    0.3338   -2.8752 H   0  0  0  0  0  0  0  0  0  0  0  0
    1.2931   -2.8793   -0.3971 H   0  0  0  0  0  0  0  0  0  0  0  0
   -2.3518   -8.1851   -1.9424 H   0  0  0  0  0  0  0  0  0  0  0  0
   -2.4650  -10.3222   -0.7087 H   0  0  0  0  0  0  0  0  0  0  0  0
   -1.0127  -10.6845    1.2759 H   0  0  0  0  0  0  0  0  0  0  0  0
    0.5812   -8.9356    1.9594 H   0  0  0  0  0  0  0  0  0  0  0  0
    1.6874   -4.1292    2.3181 H   0  0  0  0  0  0  0  0  0  0  0  0
  1  2  1  0  0  0  0
  1 28  1  0  0  0  0
  1 29  1  0  0  0  0
  1 30  1  0  0  0  0
  2  3  1  0  0  0  0
  3  4  1  0  0  0  0
  3 27  2  0  0  0  0
  4  5  2  0  0  0  0
  4 31  1  0  0  0  0
  5  6  1  0  0  0  0
  5 32  1  0  0  0  0
  6  7  2  0  0  0  0
  6 33  1  0  0  0  0
  7  8  1  0  0  0  0
  7 27  1  0  0  0  0
  8  9  1  0  0  0  0
  8 34  1  0  0  0  0
  9 10  1  0  0  0  0
  9 26  2  0  0  0  0
 10 11  2  0  0  0  0
 11 12  1  0  0  0  0
 11 20  1  0  0  0  0
 12 13  1  0  0  0  0
 12 19  2  0  0  0  0
 13 14  2  0  0  0  0
 13 35  1  0  0  0  0
 14 15  1  0  0  0  0
 14 36  1  0  0  0  0
 15 16  2  0  0  0  0
 15 37  1  0  0  0  0
 16 17  1  0  0  0  0
 16 19  1  0  0  0  0
 17 18  1  0  0  0  0
 18 38  1  0  0  0  0
 18 39  1  0  0  0  0
 18 40  1  0  0  0  0
 19 41  1  0  0  0  0
 20 21  2  0  0  0  0
 21 22  1  0  0  0  0
 21 26  1  0  0  0  0
 22 23  2  0  0  0  0
 22 42  1  0  0  0  0
 23 24  1  0  0  0  0
 23 43  1  0  0  0  0
 24 25  2  0  0  0  0
 24 44  1  0  0  0  0
 25 26  1  0  0  0  0
 25 45  1  0  0  0  0
 27 46  1  0  0  0  0
M  END
>  <Energy>
38.7567

$$$$