97332
  -OEChem-03242010103D

 47 49  0     0  0  0  0  0  0999 V2000
   -0.4083    0.9389    0.1361 O   0  0  0  0  0  0  0  0  0  0  0  0
    0.6512   -2.5429    0.7216 O   0  0  0  0  0  0  0  0  0  0  0  0
   -4.4890   -1.6728    0.2588 O   0  0  0  0  0  0  0  0  0  0  0  0
   -4.6357    3.0234   -0.4253 O   0  0  0  0  0  0  0  0  0  0  0  0
   -2.1192   -2.7344    0.5654 O   0  0  0  0  0  0  0  0  0  0  0  0
    4.6700    0.2592   -1.8769 O   0  0  0  0  0  0  0  0  0  0  0  0
    5.8757    0.8896    0.5469 O   0  0  0  0  0  0  0  0  0  0  0  0
   -2.4166   -0.4226    0.2066 C   0  0  0  0  0  0  0  0  0  0  0  0
   -1.7710    0.8044    0.0701 C   0  0  0  0  0  0  0  0  0  0  0  0
    0.3595   -0.1976    0.3356 C   0  0  0  0  0  0  0  0  0  0  0  0
   -0.1391   -1.4375    0.4915 C   0  0  0  0  0  0  0  0  0  0  0  0
    1.8046    0.0869    0.3871 C   0  0  0  0  0  0  0  0  0  0  0  0
   -1.6081   -1.6305    0.4322 C   0  0  0  0  0  0  0  0  0  0  0  0
   -3.8096   -0.4992    0.1316 C   0  0  0  0  0  0  0  0  0  0  0  0
   -2.5157    1.9649   -0.1422 C   0  0  0  0  0  0  0  0  0  0  0  0
   -3.9067    1.8926   -0.2180 C   0  0  0  0  0  0  0  0  0  0  0  0
   -4.5521    0.6629   -0.0814 C   0  0  0  0  0  0  0  0  0  0  0  0
    2.5677    0.0395   -0.7799 C   0  0  0  0  0  0  0  0  0  0  0  0
    2.4106    0.4029    1.6035 C   0  0  0  0  0  0  0  0  0  0  0  0
    3.9357    0.3080   -0.7305 C   0  0  0  0  0  0  0  0  0  0  0  0
    4.5409    0.6240    0.4859 C   0  0  0  0  0  0  0  0  0  0  0  0
    3.7783    0.6713    1.6529 C   0  0  0  0  0  0  0  0  0  0  0  0
    1.0359   -3.1491   -0.4975 C   0  0  0  0  0  0  0  0  0  0  0  0
   -4.7348   -2.4124   -0.9357 C   0  0  0  0  0  0  0  0  0  0  0  0
   -6.0534    2.8785   -0.4924 C   0  0  0  0  0  0  0  0  0  0  0  0
    5.2545   -0.9958   -2.2193 C   0  0  0  0  0  0  0  0  0  0  0  0
    6.2748    2.2477    0.3731 C   0  0  0  0  0  0  0  0  0  0  0  0
   -2.0152    2.9240   -0.2487 H   0  0  0  0  0  0  0  0  0  0  0  0
   -5.6303    0.5481   -0.1300 H   0  0  0  0  0  0  0  0  0  0  0  0
    2.1025   -0.1946   -1.7350 H   0  0  0  0  0  0  0  0  0  0  0  0
    1.8291    0.4440    2.5214 H   0  0  0  0  0  0  0  0  0  0  0  0
    4.2433    0.9163    2.6040 H   0  0  0  0  0  0  0  0  0  0  0  0
    1.6330   -4.0346   -0.2588 H   0  0  0  0  0  0  0  0  0  0  0  0
    0.1613   -3.4831   -1.0671 H   0  0  0  0  0  0  0  0  0  0  0  0
    1.6517   -2.4947   -1.1177 H   0  0  0  0  0  0  0  0  0  0  0  0
   -5.0872   -3.4088   -0.6557 H   0  0  0  0  0  0  0  0  0  0  0  0
   -5.5138   -1.9187   -1.5251 H   0  0  0  0  0  0  0  0  0  0  0  0
   -3.8265   -2.5174   -1.5378 H   0  0  0  0  0  0  0  0  0  0  0  0
   -6.4666    2.5162    0.4552 H   0  0  0  0  0  0  0  0  0  0  0  0
   -6.4722    3.8759   -0.6621 H   0  0  0  0  0  0  0  0  0  0  0  0
   -6.3551    2.2571   -1.3425 H   0  0  0  0  0  0  0  0  0  0  0  0
    4.4777   -1.7526   -2.3683 H   0  0  0  0  0  0  0  0  0  0  0  0
    5.9519   -1.3211   -1.4409 H   0  0  0  0  0  0  0  0  0  0  0  0
    5.8071   -0.8726   -3.1547 H   0  0  0  0  0  0  0  0  0  0  0  0
    5.8474    2.8767    1.1604 H   0  0  0  0  0  0  0  0  0  0  0  0
    5.9684    2.6168   -0.6108 H   0  0  0  0  0  0  0  0  0  0  0  0
    7.3651    2.2956    0.4404 H   0  0  0  0  0  0  0  0  0  0  0  0
  1  9  1  0  0  0  0
  1 10  1  0  0  0  0
  2 11  1  0  0  0  0
  2 23  1  0  0  0  0
  3 14  1  0  0  0  0
  3 24  1  0  0  0  0
  4 16  1  0  0  0  0
  4 25  1  0  0  0  0
  5 13  2  0  0  0  0
  6 20  1  0  0  0  0
  6 26  1  0  0  0  0
  7 21  1  0  0  0  0
  7 27  1  0  0  0  0
  8  9  2  0  0  0  0
  8 13  1  0  0  0  0
  8 14  1  0  0  0  0
  9 15  1  0  0  0  0
 10 11  2  0  0  0  0
 10 12  1  0  0  0  0
 11 13  1  0  0  0  0
 12 18  2  0  0  0  0
 12 19  1  0  0  0  0
 14 17  2  0  0  0  0
 15 16  2  0  0  0  0
 15 28  1  0  0  0  0
 16 17  1  0  0  0  0
 17 29  1  0  0  0  0
 18 20  1  0  0  0  0
 18 30  1  0  0  0  0
 19 22  2  0  0  0  0
 19 31  1  0  0  0  0
 20 21  2  0  0  0  0
 21 22  1  0  0  0  0
 22 32  1  0  0  0  0
 23 33  1  0  0  0  0
 23 34  1  0  0  0  0
 23 35  1  0  0  0  0
 24 36  1  0  0  0  0
 24 37  1  0  0  0  0
 24 38  1  0  0  0  0
 25 39  1  0  0  0  0
 25 40  1  0  0  0  0
 25 41  1  0  0  0  0
 26 42  1  0  0  0  0
 26 43  1  0  0  0  0
 26 44  1  0  0  0  0
 27 45  1  0  0  0  0
 27 46  1  0  0  0  0
 27 47  1  0  0  0  0
M  END
> <PUBCHEM_COMPOUND_CID>
97332

> <PUBCHEM_CONFORMER_RMSD>
0.8

> <PUBCHEM_CONFORMER_DIVERSEORDER>
1
12
10
2
13
7
9
5
8
11
4
6
3

> <PUBCHEM_MMFF94_PARTIAL_CHARGES>
32
1 -0.16
10 0.05
11 0.09
12 0.03
13 0.47
14 0.08
15 -0.15
16 0.08
17 -0.15
18 -0.15
19 -0.15
2 -0.36
20 0.08
21 0.08
22 -0.15
23 0.28
24 0.28
25 0.28
26 0.28
27 0.28
28 0.15
29 0.15
3 -0.36
30 0.15
31 0.15
32 0.15
4 -0.36
5 -0.57
6 -0.36
7 -0.36
8 0.09
9 0.08

> <PUBCHEM_EFFECTIVE_ROTOR_COUNT>
6

> <PUBCHEM_PHARMACOPHORE_FEATURES>
10
1 1 acceptor
1 2 acceptor
1 3 acceptor
1 4 acceptor
1 5 acceptor
1 6 acceptor
1 7 acceptor
6 1 8 9 10 11 13 rings
6 12 18 19 20 21 22 rings
6 8 9 14 15 16 17 rings

> <PUBCHEM_HEAVY_ATOM_COUNT>
27

> <PUBCHEM_ATOM_DEF_STEREO_COUNT>
0

> <PUBCHEM_ATOM_UDEF_STEREO_COUNT>
0

> <PUBCHEM_BOND_DEF_STEREO_COUNT>
0

> <PUBCHEM_BOND_UDEF_STEREO_COUNT>
0

> <PUBCHEM_ISOTOPIC_ATOM_COUNT>
0

> <PUBCHEM_COMPONENT_COUNT>
1

> <PUBCHEM_CACTVS_TAUTO_COUNT>
1

> <PUBCHEM_CONFORMER_ID>
00017C3400000001

> <PUBCHEM_MMFF94_ENERGY>
129.9162

> <PUBCHEM_FEATURE_SELFOVERLAP>
50.8

> <PUBCHEM_SHAPE_FINGERPRINT>
10050765 1 18337667504414595011
10411042 1 17759804045809999187
10498660 4 18411139104090192104
10670039 82 18187652401051552670
12107183 9 17972300833949140122
12236239 1 17531239591535427784
12390115 104 18340495465585240465
12403259 415 18342184357830375762
12616971 3 16660645141890171924
12633257 1 14851605505568389728
12788726 201 17171821459355519618
12916748 109 18335707186571306066
13140716 1 17902231440681926475
13540713 4 18264783073458905611
13540713 5 18191001449488912587
13944108 23 16680914334027766445
14341114 328 16443074893197737896
14790565 3 17908708328674121305
14840074 17 16950578661479313661
15196674 1 18409444761029917283
16087824 20 18409724047229546797
16752209 62 18335702788192700018
17980427 23 17821728355516660829
18608769 82 18410295835534495315
200 152 15554457305316887434
20645477 70 17131847456197482030
20691752 17 17168144468806694019
21033648 29 18129928083596162120
21033650 10 18261972773071883984
21236236 1 18410569617591775897
21279426 13 18271531892608922822
22122407 14 15502367941856106671
22149856 69 18046086874101094489
22393880 68 18272653415543326823
23366157 5 17752199496331026011
23402539 116 18410285947485850356
23557571 272 18342737472483100640
23559900 14 18270964540287356972
23569914 152 16622368702770722989
25147074 1 18116414991412419811
2747138 104 18189067550232347179
3298306 158 18272935981790124166
3472631 163 18335138700437273444
34797466 226 18202568405590168388
34934 24 18337945693804166401
3633792 109 16806421704947133075
46194498 28 17844249734188550080
469060 322 18263100928063216217
5104073 3 18187928322593332475
5265222 85 18267592489245460302
56616090 163 18337961073670473311
59682541 52 17202762566610868860
59755656 215 18268712710060676212
7808743 9 18335414664627928609
9981440 41 18259989275201298907

> <PUBCHEM_SHAPE_MULTIPOLES>
514.56
14
3.18
1.29
5.13
0.68
0.34
-8.56
3.34
-3.99
0.3
2.11
0.19
1.5

> <PUBCHEM_SHAPE_SELFOVERLAP>
1117.671

> <PUBCHEM_SHAPE_VOLUME>
281.7

> <PUBCHEM_COORDINATE_TYPE>
2
5
10

$$$$