154
 OpenBabel03292022013D

 71 75  0  0  1  0  0  0  0  0999 V2000
    1.4360    0.8417    1.4900 C   0  0  0  0  0  0  0  0  0  0  0  0
    2.5829   -0.1366    1.7044 C   0  0  0  0  0  0  0  0  0  0  0  0
    3.6305   -0.0525    0.5886 C   0  0  1  0  0  0  0  0  0  0  0  0
    4.3220    1.4110    0.5320 C   0  0  0  0  0  0  0  0  0  0  0  0
    5.6763    1.5970   -0.1079 N   0  0  0  0  0  0  0  0  0  0  0  0
    5.5862    2.1144   -1.4790 C   0  0  0  0  0  0  0  0  0  0  0  0
    6.5902    0.3868   -0.0185 C   0  0  1  0  0  0  0  0  0  0  0  0
    7.3049    0.4709    1.4052 C   0  0  0  0  0  0  0  0  0  0  0  0
    7.2870   -0.5709    2.5348 C   0  0  0  0  0  0  0  0  0  0  0  0
    6.9789   -1.9292    2.5432 C   0  0  0  0  0  0  0  0  0  0  0  0
    7.3736   -2.4513    3.7487 N   0  0  0  0  0  0  0  0  0  0  0  0
    7.5560   -1.4432    4.6558 C   0  0  0  0  0  0  0  0  0  0  0  0
    7.7525   -1.5100    6.0408 C   0  0  0  0  0  0  0  0  0  0  0  0
    7.8532   -0.3027    6.7346 C   0  0  0  0  0  0  0  0  0  0  0  0
    7.8002    0.9127    6.0569 C   0  0  0  0  0  0  0  0  0  0  0  0
    7.6575    0.9534    4.6615 C   0  0  0  0  0  0  0  0  0  0  0  0
    7.5124   -0.2497    3.9356 C   0  0  0  0  0  0  0  0  0  0  0  0
    6.3934   -2.7561    1.5172 C   0  0  0  0  0  0  0  0  0  0  0  0
    7.2696   -3.5027    0.9288 N   0  0  0  0  0  0  0  0  0  0  0  0
    7.0182   -4.2399   -0.1705 N   0  0  0  0  0  0  0  0  0  0  0  0
    8.0337   -4.3286   -1.1341 C   0  0  0  0  0  0  0  0  0  0  0  0
    9.4225   -3.3767   -1.1617 S   0  0  0  0  0  0  0  0  0  0  0  0
    7.7450   -5.3292   -2.0461 N   0  0  0  0  0  0  0  0  0  0  0  0
    8.7263   -5.9603   -2.9222 C   0  0  0  0  0  0  0  0  0  0  0  0
    9.5222   -7.0427   -2.2341 C   0  0  0  0  0  0  0  0  0  0  0  0
    9.7481   -7.0940   -0.8539 C   0  0  0  0  0  0  0  0  0  0  0  0
   10.5528   -8.0852   -0.3082 C   0  0  0  0  0  0  0  0  0  0  0  0
   11.1134   -9.0106   -1.1611 C   0  0  0  0  0  0  0  0  0  0  0  0
   10.9271   -9.0062   -2.4980 N   0  0  0  0  0  0  0  0  0  0  0  0
   10.1509   -8.0203   -3.0035 C   0  0  0  0  0  0  0  0  0  0  0  0
    4.8895   -2.5041    1.2202 C   0  0  0  0  0  0  0  0  0  0  0  0
    4.7898   -1.0462    0.7662 C   0  0  1  0  0  0  0  0  0  0  0  0
    5.6838   -0.7611   -0.4341 C   0  0  2  0  0  0  0  0  0  0  0  0
    5.9624   -1.8169   -1.4964 C   0  0  0  0  0  0  0  0  0  0  0  0
    5.3254   -2.8726   -1.5689 O   0  0  0  0  0  0  0  0  0  0  0  0
    6.6915   -1.3117   -2.5281 O   0  0  0  0  0  0  0  0  0  0  0  0
    6.4774   -2.0132   -3.7587 C   0  0  0  0  0  0  0  0  0  0  0  0
    0.6370    0.6541    2.2134 H   0  0  0  0  0  0  0  0  0  0  0  0
    1.0158    0.7416    0.4841 H   0  0  0  0  0  0  0  0  0  0  0  0
    1.7662    1.8771    1.6219 H   0  0  0  0  0  0  0  0  0  0  0  0
    2.1765   -1.1544    1.7394 H   0  0  0  0  0  0  0  0  0  0  0  0
    3.0445    0.0584    2.6799 H   0  0  0  0  0  0  0  0  0  0  0  0
    3.1195   -0.2419   -0.3654 H   0  0  0  0  0  0  0  0  0  0  0  0
    4.4502    1.7490    1.5681 H   0  0  0  0  0  0  0  0  0  0  0  0
    3.6112    2.1153    0.0826 H   0  0  0  0  0  0  0  0  0  0  0  0
    5.2725    3.1580   -1.4646 H   0  0  0  0  0  0  0  0  0  0  0  0
    4.8838    1.5536   -2.1068 H   0  0  0  0  0  0  0  0  0  0  0  0
    6.5649    2.0921   -1.9775 H   0  0  0  0  0  0  0  0  0  0  0  0
    7.4031    0.4929   -0.7483 H   0  0  0  0  0  0  0  0  0  0  0  0
    6.9564    1.3998    1.8814 H   0  0  0  0  0  0  0  0  0  0  0  0
    8.3681    0.6723    1.2074 H   0  0  0  0  0  0  0  0  0  0  0  0
    7.3851   -3.4367    3.9700 H   0  0  0  0  0  0  0  0  0  0  0  0
    7.7960   -2.4579    6.5647 H   0  0  0  0  0  0  0  0  0  0  0  0
    7.9702   -0.3151    7.8156 H   0  0  0  0  0  0  0  0  0  0  0  0
    7.8635    1.8421    6.6175 H   0  0  0  0  0  0  0  0  0  0  0  0
    7.6098    1.9124    4.1551 H   0  0  0  0  0  0  0  0  0  0  0  0
    6.0693   -4.2380   -0.5481 H   0  0  0  0  0  0  0  0  0  0  0  0
    6.9598   -5.9131   -1.7985 H   0  0  0  0  0  0  0  0  0  0  0  0
    9.3998   -5.2143   -3.3462 H   0  0  0  0  0  0  0  0  0  0  0  0
    8.1492   -6.3980   -3.7439 H   0  0  0  0  0  0  0  0  0  0  0  0
    9.3233   -6.3594   -0.1773 H   0  0  0  0  0  0  0  0  0  0  0  0
   10.7446   -8.1199    0.7614 H   0  0  0  0  0  0  0  0  0  0  0  0
   11.7533   -9.8038   -0.7844 H   0  0  0  0  0  0  0  0  0  0  0  0
   10.0484   -8.0382   -4.0824 H   0  0  0  0  0  0  0  0  0  0  0  0
    4.3467   -2.6325    2.1655 H   0  0  0  0  0  0  0  0  0  0  0  0
    4.4707   -3.2295    0.5243 H   0  0  0  0  0  0  0  0  0  0  0  0
    5.1663   -0.5678    1.6679 H   0  0  0  0  0  0  0  0  0  0  0  0
    4.9935   -0.2990   -1.1595 H   0  0  0  0  0  0  0  0  0  0  0  0
    7.2275   -1.6854   -4.4827 H   0  0  0  0  0  0  0  0  0  0  0  0
    5.4856   -1.7607   -4.1499 H   0  0  0  0  0  0  0  0  0  0  0  0
    6.5633   -3.0974   -3.6388 H   0  0  0  0  0  0  0  0  0  0  0  0
  1  2  1  0  0  0  0
  1 38  1  0  0  0  0
  1 39  1  0  0  0  0
  1 40  1  0  0  0  0
  2 41  1  0  0  0  0
  2 42  1  0  0  0  0
  3  4  1  0  0  0  0
  3 32  1  0  0  0  0
  3  2  1  0  0  0  0
  3 43  1  6  0  0  0
  4  5  1  0  0  0  0
  4 44  1  0  0  0  0
  4 45  1  0  0  0  0
  5  6  1  0  0  0  0
  5  7  1  0  0  0  0
  6 46  1  0  0  0  0
  6 47  1  0  0  0  0
  6 48  1  0  0  0  0
  7  8  1  0  0  0  0
  7 33  1  0  0  0  0
  7 49  1  6  0  0  0
  8  9  1  0  0  0  0
  8 50  1  0  0  0  0
  8 51  1  0  0  0  0
  9 10  2  0  0  0  0
  9 17  1  0  0  0  0
 10 11  1  0  0  0  0
 10 18  1  0  0  0  0
 11 12  1  0  0  0  0
 11 52  1  0  0  0  0
 12 13  1  0  0  0  0
 12 17  2  0  0  0  0
 13 14  2  0  0  0  0
 13 53  1  0  0  0  0
 14 15  1  0  0  0  0
 14 54  1  0  0  0  0
 15 16  2  0  0  0  0
 15 55  1  0  0  0  0
 16 17  1  0  0  0  0
 16 56  1  0  0  0  0
 18 19  2  0  0  0  0
 18 31  1  0  0  0  0
 19 20  1  0  0  0  0
 20 21  1  0  0  0  0
 20 57  1  0  0  0  0
 21 22  2  0  0  0  0
 21 23  1  0  0  0  0
 23 24  1  0  0  0  0
 23 58  1  0  0  0  0
 24 25  1  0  0  0  0
 24 59  1  0  0  0  0
 24 60  1  0  0  0  0
 25 26  1  0  0  0  0
 25 30  2  0  0  0  0
 26 27  2  0  0  0  0
 26 61  1  0  0  0  0
 27 28  1  0  0  0  0
 27 62  1  0  0  0  0
 28 29  2  0  0  0  0
 28 63  1  0  0  0  0
 29 30  1  0  0  0  0
 30 64  1  0  0  0  0
 31 32  1  0  0  0  0
 31 65  1  0  0  0  0
 31 66  1  0  0  0  0
 32 33  1  0  0  0  0
 32 67  1  1  0  0  0
 33 34  1  0  0  0  0
 33 68  1  6  0  0  0
 34 35  2  0  0  0  0
 34 36  1  0  0  0  0
 36 37  1  0  0  0  0
 37 69  1  0  0  0  0
 37 70  1  0  0  0  0
 37 71  1  0  0  0  0
M  END
>  <Energy>
163.229

$$$$