127045064
  -OEChem-03242010103D

 70 74  0     0  0  0  0  0  0999 V2000
    0.4456   -3.7774    0.3763 O   0  0  0  0  0  0  0  0  0  0  0  0
    2.2393   -5.8348    0.8994 O   0  0  0  0  0  0  0  0  0  0  0  0
   -5.8327   -1.9730   -1.7522 O   0  0  0  0  0  0  0  0  0  0  0  0
   -3.1475    4.3817    1.1439 O   0  0  0  0  0  0  0  0  0  0  0  0
   -8.4346   -1.9118   -0.7757 O   0  0  0  0  0  0  0  0  0  0  0  0
    2.9622    2.6867    0.4884 N   0  0  0  0  0  0  0  0  0  0  0  0
    3.2952    0.3611    0.3567 N   0  0  0  0  0  0  0  0  0  0  0  0
    5.3310   -0.5387   -0.5666 N   0  0  0  0  0  0  0  0  0  0  0  0
    5.0300    1.8376   -0.4511 C   0  0  0  0  0  0  0  0  0  0  0  0
    3.7848    1.5929    0.1211 C   0  0  0  0  0  0  0  0  0  0  0  0
    5.7896    0.7055   -0.7882 C   0  0  0  0  0  0  0  0  0  0  0  0
    4.1088   -0.6434   -0.0064 C   0  0  0  0  0  0  0  0  0  0  0  0
    3.6244   -1.9788    0.2275 C   0  0  0  0  0  0  0  0  0  0  0  0
    1.5686    2.8432    0.5558 C   0  0  0  0  0  0  0  0  0  0  0  0
    5.5198    3.1339   -0.6873 C   0  0  0  0  0  0  0  0  0  0  0  0
    7.0416    0.9105   -1.3632 C   0  0  0  0  0  0  0  0  0  0  0  0
    2.2547   -2.2400    0.1914 C   0  0  0  0  0  0  0  0  0  0  0  0
    4.5248   -3.0115    0.4889 C   0  0  0  0  0  0  0  0  0  0  0  0
    6.7742    3.3095   -1.2631 C   0  0  0  0  0  0  0  0  0  0  0  0
    1.0095    3.7199    1.4854 C   0  0  0  0  0  0  0  0  0  0  0  0
    0.7433    2.1217   -0.3067 C   0  0  0  0  0  0  0  0  0  0  0  0
   -1.2006    3.1535    0.6901 C   0  0  0  0  0  0  0  0  0  0  0  0
    7.5357    2.1963   -1.6013 C   0  0  0  0  0  0  0  0  0  0  0  0
    1.7853   -3.5341    0.4168 C   0  0  0  0  0  0  0  0  0  0  0  0
   -0.3752    3.8752    1.5525 C   0  0  0  0  0  0  0  0  0  0  0  0
   -0.6414    2.2767   -0.2394 C   0  0  0  0  0  0  0  0  0  0  0  0
    2.6856   -4.5669    0.6783 C   0  0  0  0  0  0  0  0  0  0  0  0
    4.0553   -4.3056    0.7145 C   0  0  0  0  0  0  0  0  0  0  0  0
   -2.6442    3.3147    0.7608 C   0  0  0  0  0  0  0  0  0  0  0  0
   -5.7890    1.1543    0.1403 C   0  0  0  0  0  0  0  0  0  0  0  0
   -3.5175    2.1491    0.3899 C   0  0  0  0  0  0  0  0  0  0  0  0
   -4.8531    2.2446    0.4673 C   0  0  0  0  0  0  0  0  0  0  0  0
   -5.3690    0.0917   -0.6599 C   0  0  0  0  0  0  0  0  0  0  0  0
   -6.2545   -0.9406   -0.9699 C   0  0  0  0  0  0  0  0  0  0  0  0
   -7.0946    1.1847    0.6303 C   0  0  0  0  0  0  0  0  0  0  0  0
   -7.5602   -0.9100   -0.4800 C   0  0  0  0  0  0  0  0  0  0  0  0
   -7.9802    0.1527    0.3200 C   0  0  0  0  0  0  0  0  0  0  0  0
   -0.4066   -2.6668    0.1027 C   0  0  0  0  0  0  0  0  0  0  0  0
    3.2250   -6.8325    1.1595 C   0  0  0  0  0  0  0  0  0  0  0  0
   -4.4832   -1.9281   -2.2119 C   0  0  0  0  0  0  0  0  0  0  0  0
   -9.7502   -1.8041   -0.2349 C   0  0  0  0  0  0  0  0  0  0  0  0
    3.4721    3.4159    0.9795 H   0  0  0  0  0  0  0  0  0  0  0  0
    4.9470    4.0240   -0.4426 H   0  0  0  0  0  0  0  0  0  0  0  0
    7.6572    0.0558   -1.6371 H   0  0  0  0  0  0  0  0  0  0  0  0
    1.5881   -1.4132   -0.0296 H   0  0  0  0  0  0  0  0  0  0  0  0
    5.5974   -2.8376    0.5334 H   0  0  0  0  0  0  0  0  0  0  0  0
    7.1555    4.3089   -1.4491 H   0  0  0  0  0  0  0  0  0  0  0  0
    1.6409    4.2870    2.1647 H   0  0  0  0  0  0  0  0  0  0  0  0
    1.1559    1.4481   -1.0531 H   0  0  0  0  0  0  0  0  0  0  0  0
    8.5158    2.3245   -2.0516 H   0  0  0  0  0  0  0  0  0  0  0  0
   -0.7923    4.5596    2.2867 H   0  0  0  0  0  0  0  0  0  0  0  0
   -1.2432    1.7248   -0.9552 H   0  0  0  0  0  0  0  0  0  0  0  0
    4.8116   -5.0570    0.9136 H   0  0  0  0  0  0  0  0  0  0  0  0
   -3.0288    1.2177    0.1357 H   0  0  0  0  0  0  0  0  0  0  0  0
   -5.3191    3.1754    0.7814 H   0  0  0  0  0  0  0  0  0  0  0  0
   -4.3607    0.1076   -1.0529 H   0  0  0  0  0  0  0  0  0  0  0  0
   -7.4377    2.0050    1.2563 H   0  0  0  0  0  0  0  0  0  0  0  0
   -8.9780    0.2428    0.7354 H   0  0  0  0  0  0  0  0  0  0  0  0
   -1.4358   -3.0410    0.1136 H   0  0  0  0  0  0  0  0  0  0  0  0
   -0.2301   -2.2581   -0.8982 H   0  0  0  0  0  0  0  0  0  0  0  0
   -0.3403   -1.9025    0.8848 H   0  0  0  0  0  0  0  0  0  0  0  0
    3.8903   -6.9760    0.3013 H   0  0  0  0  0  0  0  0  0  0  0  0
    2.6940   -7.7781    1.3114 H   0  0  0  0  0  0  0  0  0  0  0  0
    3.7751   -6.6251    2.0838 H   0  0  0  0  0  0  0  0  0  0  0  0
   -4.3183   -2.8300   -2.8108 H   0  0  0  0  0  0  0  0  0  0  0  0
   -3.7699   -1.9670   -1.3813 H   0  0  0  0  0  0  0  0  0  0  0  0
   -4.3100   -1.0736   -2.8750 H   0  0  0  0  0  0  0  0  0  0  0  0
  -10.3092   -2.6840   -0.5701 H   0  0  0  0  0  0  0  0  0  0  0  0
  -10.2763   -0.9260   -0.6249 H   0  0  0  0  0  0  0  0  0  0  0  0
   -9.7401   -1.8323    0.8600 H   0  0  0  0  0  0  0  0  0  0  0  0
  1 24  1  0  0  0  0
  1 38  1  0  0  0  0
  2 27  1  0  0  0  0
  2 39  1  0  0  0  0
  3 34  1  0  0  0  0
  3 40  1  0  0  0  0
  4 29  2  0  0  0  0
  5 36  1  0  0  0  0
  5 41  1  0  0  0  0
  6 10  1  0  0  0  0
  6 14  1  0  0  0  0
  6 42  1  0  0  0  0
  7 10  2  0  0  0  0
  7 12  1  0  0  0  0
  8 11  1  0  0  0  0
  8 12  2  0  0  0  0
  9 10  1  0  0  0  0
  9 11  1  0  0  0  0
  9 15  2  0  0  0  0
 11 16  2  0  0  0  0
 12 13  1  0  0  0  0
 13 17  2  0  0  0  0
 13 18  1  0  0  0  0
 14 20  2  0  0  0  0
 14 21  1  0  0  0  0
 15 19  1  0  0  0  0
 15 43  1  0  0  0  0
 16 23  1  0  0  0  0
 16 44  1  0  0  0  0
 17 24  1  0  0  0  0
 17 45  1  0  0  0  0
 18 28  2  0  0  0  0
 18 46  1  0  0  0  0
 19 23  2  0  0  0  0
 19 47  1  0  0  0  0
 20 25  1  0  0  0  0
 20 48  1  0  0  0  0
 21 26  2  0  0  0  0
 21 49  1  0  0  0  0
 22 25  2  0  0  0  0
 22 26  1  0  0  0  0
 22 29  1  0  0  0  0
 23 50  1  0  0  0  0
 24 27  2  0  0  0  0
 25 51  1  0  0  0  0
 26 52  1  0  0  0  0
 27 28  1  0  0  0  0
 28 53  1  0  0  0  0
 29 31  1  0  0  0  0
 30 32  1  0  0  0  0
 30 33  2  0  0  0  0
 30 35  1  0  0  0  0
 31 32  2  0  0  0  0
 31 54  1  0  0  0  0
 32 55  1  0  0  0  0
 33 34  1  0  0  0  0
 33 56  1  0  0  0  0
 34 36  2  0  0  0  0
 35 37  2  0  0  0  0
 35 57  1  0  0  0  0
 36 37  1  0  0  0  0
 37 58  1  0  0  0  0
 38 59  1  0  0  0  0
 38 60  1  0  0  0  0
 38 61  1  0  0  0  0
 39 62  1  0  0  0  0
 39 63  1  0  0  0  0
 39 64  1  0  0  0  0
 40 65  1  0  0  0  0
 40 66  1  0  0  0  0
 40 67  1  0  0  0  0
 41 68  1  0  0  0  0
 41 69  1  0  0  0  0
 41 70  1  0  0  0  0
M  END
> <PUBCHEM_COMPOUND_CID>
127045064

> <PUBCHEM_CONFORMER_RMSD>
1.2

> <PUBCHEM_CONFORMER_DIVERSEORDER>
1
13
53
54
2
66
64
31
59
19
60
11
50
68
28
36
71
14
7
15
18
12
17
5
40
27
67
29
24
70
22
51
38
25
46
3
65
57
43
32
20
16
63
44
61
9
52
48
42
47
37
62
10
30
45
23
58
8
26
33
34
21
35
41
4
49
39
6
55
69
56

> <PUBCHEM_MMFF94_PARTIAL_CHARGES>
56
1 -0.36
10 0.41
11 0.31
12 0.62
14 0.1
15 -0.15
16 -0.15
17 -0.15
18 -0.15
19 -0.15
2 -0.36
20 -0.15
21 -0.15
22 0.09
23 -0.15
24 0.08
25 -0.15
26 -0.15
27 0.08
28 -0.15
29 0.47
3 -0.36
30 0.03
31 -0.14
32 -0.18
33 -0.15
34 0.08
35 -0.15
36 0.08
37 -0.15
38 0.28
39 0.28
4 -0.57
40 0.28
41 0.28
42 0.4
43 0.15
44 0.15
45 0.15
46 0.15
47 0.15
48 0.15
49 0.15
5 -0.36
50 0.15
51 0.15
52 0.15
53 0.15
54 0.15
55 0.15
56 0.15
57 0.15
58 0.15
6 -0.6
7 -0.62
8 -0.62

> <PUBCHEM_EFFECTIVE_ROTOR_COUNT>
10

> <PUBCHEM_PHARMACOPHORE_FEATURES>
13
1 1 acceptor
1 2 acceptor
1 3 acceptor
1 4 acceptor
1 5 acceptor
1 6 donor
3 6 7 10 cation
3 7 8 12 cation
6 13 17 18 24 27 28 rings
6 14 20 21 22 25 26 rings
6 30 33 34 35 36 37 rings
6 7 8 9 10 11 12 rings
6 9 11 15 16 19 23 rings

> <PUBCHEM_HEAVY_ATOM_COUNT>
41

> <PUBCHEM_ATOM_DEF_STEREO_COUNT>
0

> <PUBCHEM_ATOM_UDEF_STEREO_COUNT>
0

> <PUBCHEM_BOND_DEF_STEREO_COUNT>
1

> <PUBCHEM_BOND_UDEF_STEREO_COUNT>
0

> <PUBCHEM_ISOTOPIC_ATOM_COUNT>
0

> <PUBCHEM_COMPONENT_COUNT>
1

> <PUBCHEM_CACTVS_TAUTO_COUNT>
9

> <PUBCHEM_CONFORMER_ID>
07928DC800000001

> <PUBCHEM_MMFF94_ENERGY>
182.7588

> <PUBCHEM_FEATURE_SELFOVERLAP>
66.155

> <PUBCHEM_SHAPE_FINGERPRINT>
10622 236 18123744262338920905
11103572 155 18337113350897171737
11136131 41 18261671468521610994
11443803 9 18188206603059354224
11963148 33 18340483374566473613
12144603 126 18271257049537029849
1361 2 18407764737734005168
13692114 37 18409727392381491992
14394314 77 18341057342055833137
15150948 74 18335697303456335060
15320295 44 18196375818763495537
15351339 4 18411131459074434970
15467298 65 18340485561042457043
15890870 6 18335987575153315030
16067689 302 18410862088371177075
16628084 112 18337106757868580017
18365409 1 18120102929727147188
19319366 153 18411981343773449180
20775438 99 18115596937518052514
21133410 52 18120091681561966946
21133410 62 18335971009432858549
23569917 315 18270124497147436030
24204213 200 16477442092489273129
24893989 43 17845090847318920855
437795 163 18411141359491263501
44880168 125 16486971773892462693
5776283 40 18268151044529979408
6057620 51 18340214067512590320
6058803 2 17909001915527458128
6201460 15 18123468268004678699
6697151 62 17488439959312431337

> <PUBCHEM_SHAPE_MULTIPOLES>
799.47
23.97
8.45
1.33
41.63
11.43
-0.34
0.71
-9.82
-10.76
3.99
0.02
-0.18
-5.88

> <PUBCHEM_SHAPE_SELFOVERLAP>
1760.236

> <PUBCHEM_SHAPE_VOLUME>
430.5

> <PUBCHEM_COORDINATE_TYPE>
2
5
10

$$$$