156
 OpenBabel03292022013D

 55 58  0  0  1  0  0  0  0  0999 V2000
    1.7155    0.8646    1.7562 C   0  0  0  0  0  0  0  0  0  0  0  0
    2.9159   -0.0574    1.9023 C   0  0  0  0  0  0  0  0  0  0  0  0
    3.8695   -0.0085    0.6970 C   0  0  1  0  0  0  0  0  0  0  0  0
    4.5516    1.4465    0.5580 C   0  0  0  0  0  0  0  0  0  0  0  0
    5.8856    1.6098   -0.1227 N   0  0  0  0  0  0  0  0  0  0  0  0
    5.7542    2.0849   -1.5035 C   0  0  0  0  0  0  0  0  0  0  0  0
    6.8053    0.4109   -0.0153 C   0  0  1  0  0  0  0  0  0  0  0  0
    7.5495    0.5197    1.3855 C   0  0  0  0  0  0  0  0  0  0  0  0
    7.5577   -0.5184    2.5197 C   0  0  0  0  0  0  0  0  0  0  0  0
    7.2646   -1.8795    2.5504 C   0  0  0  0  0  0  0  0  0  0  0  0
    7.6459   -2.3655    3.7880 N   0  0  0  0  0  0  0  0  0  0  0  0
    7.7579   -1.3310    4.6733 C   0  0  0  0  0  0  0  0  0  0  0  0
    7.8623   -1.3526    6.0711 C   0  0  0  0  0  0  0  0  0  0  0  0
    7.8969   -0.1283    6.7390 C   0  0  0  0  0  0  0  0  0  0  0  0
    7.8643    1.0671    6.0278 C   0  0  0  0  0  0  0  0  0  0  0  0
    7.8070    1.0695    4.6262 C   0  0  0  0  0  0  0  0  0  0  0  0
    7.7287   -0.1552    3.9225 C   0  0  0  0  0  0  0  0  0  0  0  0
    6.5938   -2.7599    1.6175 C   0  0  0  0  0  0  0  0  0  0  0  0
    7.3282   -3.7139    1.1314 N   0  0  0  0  0  0  0  0  0  0  0  0
    6.7986   -4.6007    0.2671 N   0  0  0  0  0  0  0  0  0  0  0  0
    5.0850   -2.4403    1.3523 C   0  0  0  0  0  0  0  0  0  0  0  0
    5.0326   -1.0004    0.8533 C   0  0  1  0  0  0  0  0  0  0  0  0
    5.9085   -0.7687   -0.3746 C   0  0  2  0  0  0  0  0  0  0  0  0
    6.2816   -1.9021   -1.3153 C   0  0  0  0  0  0  0  0  0  0  0  0
    5.5890   -2.9082   -1.4400 O   0  0  0  0  0  0  0  0  0  0  0  0
    7.2431   -1.5504   -2.2046 O   0  0  0  0  0  0  0  0  0  0  0  0
    7.2166   -2.3514   -3.3936 C   0  0  0  0  0  0  0  0  0  0  0  0
    2.0124    1.8950    1.5420 H   0  0  0  0  0  0  0  0  0  0  0  0
    1.0591    0.5196    0.9517 H   0  0  0  0  0  0  0  0  0  0  0  0
    1.1378    0.8741    2.6858 H   0  0  0  0  0  0  0  0  0  0  0  0
    2.5537   -1.0819    2.0446 H   0  0  0  0  0  0  0  0  0  0  0  0
    3.4601    0.2139    2.8159 H   0  0  0  0  0  0  0  0  0  0  0  0
    3.3030   -0.2337   -0.2157 H   0  0  0  0  0  0  0  0  0  0  0  0
    4.7053    1.8343    1.5733 H   0  0  0  0  0  0  0  0  0  0  0  0
    3.8247    2.1281    0.0981 H   0  0  0  0  0  0  0  0  0  0  0  0
    5.4714    3.1420   -1.5064 H   0  0  0  0  0  0  0  0  0  0  0  0
    5.0077    1.5295   -2.0805 H   0  0  0  0  0  0  0  0  0  0  0  0
    6.7074    2.0222   -2.0431 H   0  0  0  0  0  0  0  0  0  0  0  0
    7.6041    0.5110   -0.7602 H   0  0  0  0  0  0  0  0  0  0  0  0
    7.1994    1.4515    1.8574 H   0  0  0  0  0  0  0  0  0  0  0  0
    8.6065    0.7303    1.1688 H   0  0  0  0  0  0  0  0  0  0  0  0
    7.6167   -3.3378    4.0392 H   0  0  0  0  0  0  0  0  0  0  0  0
    7.8809   -2.2871    6.6229 H   0  0  0  0  0  0  0  0  0  0  0  0
    7.9398   -0.1117    7.8262 H   0  0  0  0  0  0  0  0  0  0  0  0
    7.8709    2.0122    6.5681 H   0  0  0  0  0  0  0  0  0  0  0  0
    7.7606    2.0160    4.0953 H   0  0  0  0  0  0  0  0  0  0  0  0
    7.5376   -4.9493   -0.3496 H   0  0  0  0  0  0  0  0  0  0  0  0
    6.0981   -4.1976   -0.3703 H   0  0  0  0  0  0  0  0  0  0  0  0
    4.5732   -2.5254    2.3191 H   0  0  0  0  0  0  0  0  0  0  0  0
    4.6059   -3.1536    0.6853 H   0  0  0  0  0  0  0  0  0  0  0  0
    5.4407   -0.5053    1.7304 H   0  0  0  0  0  0  0  0  0  0  0  0
    5.2172   -0.3662   -1.1361 H   0  0  0  0  0  0  0  0  0  0  0  0
    8.1448   -2.1985   -3.9475 H   0  0  0  0  0  0  0  0  0  0  0  0
    6.3781   -2.0299   -4.0231 H   0  0  0  0  0  0  0  0  0  0  0  0
    7.1237   -3.4204   -3.1711 H   0  0  0  0  0  0  0  0  0  0  0  0
  1  2  1  0  0  0  0
  1 28  1  0  0  0  0
  1 29  1  0  0  0  0
  1 30  1  0  0  0  0
  2 31  1  0  0  0  0
  2 32  1  0  0  0  0
  3  4  1  0  0  0  0
  3 22  1  0  0  0  0
  3  2  1  0  0  0  0
  3 33  1  6  0  0  0
  4  5  1  0  0  0  0
  4 34  1  0  0  0  0
  4 35  1  0  0  0  0
  5  6  1  0  0  0  0
  5  7  1  0  0  0  0
  6 36  1  0  0  0  0
  6 37  1  0  0  0  0
  6 38  1  0  0  0  0
  7  8  1  0  0  0  0
  7 23  1  0  0  0  0
  7 39  1  6  0  0  0
  8  9  1  0  0  0  0
  8 40  1  0  0  0  0
  8 41  1  0  0  0  0
  9 10  2  0  0  0  0
  9 17  1  0  0  0  0
 10 11  1  0  0  0  0
 10 18  1  0  0  0  0
 11 12  1  0  0  0  0
 11 42  1  0  0  0  0
 12 13  1  0  0  0  0
 12 17  2  0  0  0  0
 13 14  2  0  0  0  0
 13 43  1  0  0  0  0
 14 15  1  0  0  0  0
 14 44  1  0  0  0  0
 15 16  2  0  0  0  0
 15 45  1  0  0  0  0
 16 17  1  0  0  0  0
 16 46  1  0  0  0  0
 18 19  2  0  0  0  0
 18 21  1  0  0  0  0
 19 20  1  0  0  0  0
 20 47  1  0  0  0  0
 20 48  1  0  0  0  0
 21 22  1  0  0  0  0
 21 49  1  0  0  0  0
 21 50  1  0  0  0  0
 22 23  1  0  0  0  0
 22 51  1  1  0  0  0
 23 24  1  0  0  0  0
 23 52  1  6  0  0  0
 24 25  2  0  0  0  0
 24 26  1  0  0  0  0
 26 27  1  0  0  0  0
 27 53  1  0  0  0  0
 27 54  1  0  0  0  0
 27 55  1  0  0  0  0
M  END
>  <Energy>
172.273

$$$$