10
 OpenBabel03292021423D

193193  0  0  1  0  0  0  0  0999 V2000
    7.2402    3.6073   -3.1859 C   0  0  0  0  0  0  0  0  0  0  0  0
    8.5204    2.8149   -2.9764 C   0  0  0  0  0  0  0  0  0  0  0  0
    9.2232    2.5623   -1.8444 C   0  0  0  0  0  0  0  0  0  0  0  0
   10.7063    1.9943   -1.8272 C   0  0  0  0  0  0  0  0  0  0  0  0
   11.7572    1.1293   -0.6281 C   0  0  1  0  0  0  0  0  0  0  0  0
   10.5754    0.2714   -0.0405 C   0  0  0  0  0  0  0  0  0  0  0  0
   13.5357    0.2992   -0.5975 C   0  0  1  0  0  0  0  0  0  0  0  0
   13.2831   -0.9014    0.1709 O   0  0  0  0  0  0  0  0  0  0  0  0
   15.0084   -0.2577   -1.7206 C   0  0  1  0  0  0  0  0  0  0  0  0
   16.6249   -1.2372   -1.1867 C   0  0  0  0  0  0  0  0  0  0  0  0
   16.8454   -1.2712    0.0280 O   0  0  0  0  0  0  0  0  0  0  0  0
   17.7904   -1.9069   -2.0457 N   0  0  0  0  0  0  0  0  0  0  0  0
   19.2432   -3.1087   -2.1979 C   0  0  1  0  0  0  0  0  0  0  0  0
   20.5102   -2.2402   -1.8527 C   0  0  0  0  0  0  0  0  0  0  0  0
   21.8134   -2.4733   -2.5728 C   0  0  0  0  0  0  0  0  0  0  0  0
   19.8234   -4.7677   -2.9241 C   0  0  0  0  0  0  0  0  0  0  0  0
   18.9951   -5.6822   -2.7322 O   0  0  0  0  0  0  0  0  0  0  0  0
   21.0581   -5.3712   -3.5377 N   0  0  0  0  0  0  0  0  0  0  0  0
   22.4309   -4.9276   -3.9444 C   0  0  0  0  0  0  0  0  0  0  0  0
   20.9304   -6.8131   -4.0974 C   0  0  0  0  0  0  0  0  0  0  0  0
   21.4056   -8.2078   -3.4835 C   0  0  0  0  0  0  0  0  0  0  0  0
   21.0586   -9.2614   -4.0334 O   0  0  0  0  0  0  0  0  0  0  0  0
   22.4097   -8.2433   -2.5290 N   0  0  0  0  0  0  0  0  0  0  0  0
   23.7947   -8.4182   -2.8895 C   0  0  0  0  0  0  0  0  0  0  0  0
   21.9855   -8.4127   -1.1212 C   0  0  2  0  0  0  0  0  0  0  0  0
   22.2457   -7.0631   -0.4518 C   0  0  0  0  0  0  0  0  0  0  0  0
   21.4978   -6.8516    0.8685 C   0  0  0  0  0  0  0  0  0  0  0  0
   22.3075   -7.3287    2.0710 C   0  0  0  0  0  0  0  0  0  0  0  0
   21.1996   -5.3638    0.9947 C   0  0  0  0  0  0  0  0  0  0  0  0
   22.5918   -9.5801   -0.2820 C   0  0  0  0  0  0  0  0  0  0  0  0
   23.8005   -9.6139   -0.0101 O   0  0  0  0  0  0  0  0  0  0  0  0
   21.8149  -10.5805    0.2640 N   0  0  0  0  0  0  0  0  0  0  0  0
   20.5735  -11.2064   -0.2520 C   0  0  2  0  0  0  0  0  0  0  0  0
   20.7791  -11.7303   -1.6981 C   0  0  0  0  0  0  0  0  0  0  0  0
   19.4879  -12.2401   -2.3461 C   0  0  0  0  0  0  0  0  0  0  0  0
   21.8278  -12.8528   -1.7509 C   0  0  0  0  0  0  0  0  0  0  0  0
   19.3449  -10.2662   -0.0946 C   0  0  0  0  0  0  0  0  0  0  0  0
   19.0259   -9.5214   -1.0240 O   0  0  0  0  0  0  0  0  0  0  0  0
   18.6844  -10.1691    1.1427 N   0  0  0  0  0  0  0  0  0  0  0  0
   18.3129  -11.3994    1.8289 C   0  0  0  0  0  0  0  0  0  0  0  0
   17.7635   -8.9844    1.2506 C   0  0  2  0  0  0  0  0  0  0  0  0
   17.4310   -8.6092    2.7205 C   0  0  0  0  0  0  0  0  0  0  0  0
   16.6264   -7.3012    2.9756 C   0  0  0  0  0  0  0  0  0  0  0  0
   15.1444   -7.3669    2.5855 C   0  0  0  0  0  0  0  0  0  0  0  0
   16.6928   -6.9573    4.4679 C   0  0  0  0  0  0  0  0  0  0  0  0
   16.4495   -9.2510    0.4907 C   0  0  0  0  0  0  0  0  0  0  0  0
   15.7670  -10.2752    0.7446 O   0  0  0  0  0  0  0  0  0  0  0  0
   15.9189   -8.3574   -0.3535 N   0  0  0  0  0  0  0  0  0  0  0  0
   16.5677   -7.4672   -1.3579 C   0  0  1  0  0  0  0  0  0  0  0  0
   15.6806   -7.6785   -2.5855 C   0  0  0  0  0  0  0  0  0  0  0  0
   16.9980   -6.0957   -0.7080 C   0  0  0  0  0  0  0  0  0  0  0  0
   17.8644   -6.0956    0.2033 O   0  0  0  0  0  0  0  0  0  0  0  0
   16.5072   -4.8553   -0.9318 N   0  0  0  0  0  0  0  0  0  0  0  0
   15.6451   -4.3226   -1.9757 C   0  0  2  0  0  0  0  0  0  0  0  0
   14.2355   -4.8606   -1.8085 C   0  0  0  0  0  0  0  0  0  0  0  0
   16.3849   -4.4568   -3.3565 C   0  0  0  0  0  0  0  0  0  0  0  0
   16.8284   -5.5342   -3.7515 O   0  0  0  0  0  0  0  0  0  0  0  0
   16.7198   -3.5207   -4.2566 N   0  0  0  0  0  0  0  0  0  0  0  0
   16.1365   -2.2446   -4.5844 C   0  0  1  0  0  0  0  0  0  0  0  0
   17.0842   -1.4290   -5.5203 C   0  0  0  0  0  0  0  0  0  0  0  0
   18.5349   -1.1144   -5.0398 C   0  0  0  0  0  0  0  0  0  0  0  0
   19.5238   -2.1386   -5.5836 C   0  0  0  0  0  0  0  0  0  0  0  0
   19.0182    0.2892   -5.4492 C   0  0  0  0  0  0  0  0  0  0  0  0
   14.6455   -2.5850   -5.0418 C   0  0  0  0  0  0  0  0  0  0  0  0
   14.1516   -3.6366   -4.6239 O   0  0  0  0  0  0  0  0  0  0  0  0
   13.8370   -1.6476   -5.6830 N   0  0  0  0  0  0  0  0  0  0  0  0
   14.2918   -1.0713   -6.9235 C   0  0  0  0  0  0  0  0  0  0  0  0
   12.3601   -1.4412   -5.3633 C   0  0  1  0  0  0  0  0  0  0  0  0
   11.7294   -2.6826   -4.5480 C   0  0  0  0  0  0  0  0  0  0  0  0
   10.2145   -2.8259   -4.2445 C   0  0  0  0  0  0  0  0  0  0  0  0
    9.5101   -3.5296   -5.4010 C   0  0  0  0  0  0  0  0  0  0  0  0
    9.9880   -3.6641   -2.9589 C   0  0  0  0  0  0  0  0  0  0  0  0
   12.3379    0.2481   -4.9932 C   0  0  0  0  0  0  0  0  0  0  0  0
   12.3155    1.0841   -5.8945 O   0  0  0  0  0  0  0  0  0  0  0  0
   12.6031    0.6462   -3.6692 N   0  0  0  0  0  0  0  0  0  0  0  0
   12.1292   -0.4559   -2.8695 C   0  0  0  0  0  0  0  0  0  0  0  0
   13.2706    2.0905   -3.0532 C   0  0  1  0  0  0  0  0  0  0  0  0
   12.9335    3.5544   -3.6047 C   0  0  0  0  0  0  0  0  0  0  0  0
   12.7707    4.6650   -2.4829 C   0  0  0  0  0  0  0  0  0  0  0  0
   14.0530    4.1540   -4.4669 C   0  0  0  0  0  0  0  0  0  0  0  0
   14.6350    2.0346   -2.3767 C   0  0  0  0  0  0  0  0  0  0  0  0
   15.0613    2.8660   -1.5683 O   0  0  0  0  0  0  0  0  0  0  0  0
   15.3567    0.8930   -2.6688 N   0  0  0  0  0  0  0  0  0  0  0  0
   15.4099    0.7844   -4.0812 C   0  0  0  0  0  0  0  0  0  0  0  0
    6.4988    3.0287   -3.7375 H   0  0  0  0  0  0  0  0  0  0  0  0
    7.4339    4.5030   -3.7751 H   0  0  0  0  0  0  0  0  0  0  0  0
    6.7812    3.9286   -2.2404 H   0  0  0  0  0  0  0  0  0  0  0  0
    8.9351    2.4836   -3.9608 H   0  0  0  0  0  0  0  0  0  0  0  0
    8.8434    2.9893   -0.9223 H   0  0  0  0  0  0  0  0  0  0  0  0
   11.1719    2.9564   -1.9003 H   0  0  0  0  0  0  0  0  0  0  0  0
   10.7430    1.4920   -2.7891 H   0  0  0  0  0  0  0  0  0  0  0  0
   11.9266    1.9390    0.1102 H   0  0  0  0  0  0  0  0  0  0  0  0
   10.0584   -0.2669   -0.8341 H   0  0  0  0  0  0  0  0  0  0  0  0
    9.8291    0.9451    0.3899 H   0  0  0  0  0  0  0  0  0  0  0  0
   10.8706   -0.4344    0.7384 H   0  0  0  0  0  0  0  0  0  0  0  0
   14.0483    1.0048    0.0627 H   0  0  0  0  0  0  0  0  0  0  0  0
   12.8396   -0.5949    1.0002 H   0  0  0  0  0  0  0  0  0  0  0  0
   14.5579   -1.0642   -2.3023 H   0  0  0  0  0  0  0  0  0  0  0  0
   18.4215   -1.2696   -1.5717 H   0  0  0  0  0  0  0  0  0  0  0  0
   19.0066   -3.5752   -1.2262 H   0  0  0  0  0  0  0  0  0  0  0  0
   20.7289   -2.3941   -0.7891 H   0  0  0  0  0  0  0  0  0  0  0  0
   20.2880   -1.1820   -1.9918 H   0  0  0  0  0  0  0  0  0  0  0  0
   21.6773   -2.6606   -3.6380 H   0  0  0  0  0  0  0  0  0  0  0  0
   22.3298   -3.2856   -2.0596 H   0  0  0  0  0  0  0  0  0  0  0  0
   22.4983   -1.6239   -2.4994 H   0  0  0  0  0  0  0  0  0  0  0  0
   23.0486   -4.5054   -3.1620 H   0  0  0  0  0  0  0  0  0  0  0  0
   22.3906   -4.3211   -4.8543 H   0  0  0  0  0  0  0  0  0  0  0  0
   23.0504   -5.8028   -4.2221 H   0  0  0  0  0  0  0  0  0  0  0  0
   21.5051   -6.8169   -5.0470 H   0  0  0  0  0  0  0  0  0  0  0  0
   19.9028   -6.9652   -4.4361 H   0  0  0  0  0  0  0  0  0  0  0  0
   23.9236   -8.5697   -3.9626 H   0  0  0  0  0  0  0  0  0  0  0  0
   24.2552   -9.2997   -2.3770 H   0  0  0  0  0  0  0  0  0  0  0  0
   24.3553   -7.5296   -2.5808 H   0  0  0  0  0  0  0  0  0  0  0  0
   20.9123   -8.5427   -1.1525 H   0  0  0  0  0  0  0  0  0  0  0  0
   23.3209   -6.8919   -0.3227 H   0  0  0  0  0  0  0  0  0  0  0  0
   21.9133   -6.2896   -1.1539 H   0  0  0  0  0  0  0  0  0  0  0  0
   20.5436   -7.3888    0.8495 H   0  0  0  0  0  0  0  0  0  0  0  0
   23.3191   -6.9145    2.0600 H   0  0  0  0  0  0  0  0  0  0  0  0
   22.3966   -8.4245    2.0902 H   0  0  0  0  0  0  0  0  0  0  0  0
   21.8264   -7.0356    3.0056 H   0  0  0  0  0  0  0  0  0  0  0  0
   22.1243   -4.7710    0.9660 H   0  0  0  0  0  0  0  0  0  0  0  0
   20.6690   -5.1399    1.9307 H   0  0  0  0  0  0  0  0  0  0  0  0
   20.5640   -5.0280    0.1651 H   0  0  0  0  0  0  0  0  0  0  0  0
   22.4057  -11.2145    0.7858 H   0  0  0  0  0  0  0  0  0  0  0  0
   20.4177  -12.0850    0.3778 H   0  0  0  0  0  0  0  0  0  0  0  0
   21.1604  -10.9157   -2.3132 H   0  0  0  0  0  0  0  0  0  0  0  0
   19.0483  -13.0601   -1.7705 H   0  0  0  0  0  0  0  0  0  0  0  0
   19.6878  -12.6011   -3.3605 H   0  0  0  0  0  0  0  0  0  0  0  0
   18.7373  -11.4514   -2.4424 H   0  0  0  0  0  0  0  0  0  0  0  0
   21.5017  -13.7309   -1.1844 H   0  0  0  0  0  0  0  0  0  0  0  0
   22.7927  -12.5265   -1.3496 H   0  0  0  0  0  0  0  0  0  0  0  0
   21.9980  -13.1665   -2.7869 H   0  0  0  0  0  0  0  0  0  0  0  0
   19.1425  -12.1018    1.8798 H   0  0  0  0  0  0  0  0  0  0  0  0
   17.5028  -11.8895    1.2783 H   0  0  0  0  0  0  0  0  0  0  0  0
   17.9980  -11.1957    2.8529 H   0  0  0  0  0  0  0  0  0  0  0  0
   18.2803   -8.1893    0.7989 H   0  0  0  0  0  0  0  0  0  0  0  0
   16.8887   -9.4236    3.2087 H   0  0  0  0  0  0  0  0  0  0  0  0
   18.3929   -8.5198    3.2438 H   0  0  0  0  0  0  0  0  0  0  0  0
   17.0935   -6.4730    2.4363 H   0  0  0  0  0  0  0  0  0  0  0  0
   14.6840   -8.3074    2.9047 H   0  0  0  0  0  0  0  0  0  0  0  0
   14.9946   -7.2515    1.5140 H   0  0  0  0  0  0  0  0  0  0  0  0
   14.5777   -6.5452    3.0378 H   0  0  0  0  0  0  0  0  0  0  0  0
   16.2488   -7.7544    5.0740 H   0  0  0  0  0  0  0  0  0  0  0  0
   16.1482   -6.0299    4.6784 H   0  0  0  0  0  0  0  0  0  0  0  0
   17.7281   -6.8127    4.7899 H   0  0  0  0  0  0  0  0  0  0  0  0
   15.0322   -8.7301   -0.6669 H   0  0  0  0  0  0  0  0  0  0  0  0
   17.5307   -7.9108   -1.6234 H   0  0  0  0  0  0  0  0  0  0  0  0
   14.6268   -7.4743   -2.3836 H   0  0  0  0  0  0  0  0  0  0  0  0
   15.7388   -8.7397   -2.8727 H   0  0  0  0  0  0  0  0  0  0  0  0
   15.9238   -7.1972   -3.5123 H   0  0  0  0  0  0  0  0  0  0  0  0
   16.9580   -4.1639   -0.3404 H   0  0  0  0  0  0  0  0  0  0  0  0
   15.5614   -3.2574   -1.7728 H   0  0  0  0  0  0  0  0  0  0  0  0
   14.2087   -5.7616   -1.1836 H   0  0  0  0  0  0  0  0  0  0  0  0
   13.7395   -5.0706   -2.7488 H   0  0  0  0  0  0  0  0  0  0  0  0
   13.6241   -4.1354   -1.2492 H   0  0  0  0  0  0  0  0  0  0  0  0
   17.1423   -4.0220   -5.0297 H   0  0  0  0  0  0  0  0  0  0  0  0
   16.0278   -1.7317   -3.6434 H   0  0  0  0  0  0  0  0  0  0  0  0
   16.6450   -0.4595   -5.7085 H   0  0  0  0  0  0  0  0  0  0  0  0
   17.1163   -1.9044   -6.5021 H   0  0  0  0  0  0  0  0  0  0  0  0
   18.5956   -1.1022   -3.9588 H   0  0  0  0  0  0  0  0  0  0  0  0
   19.5104   -2.1471   -6.6765 H   0  0  0  0  0  0  0  0  0  0  0  0
   19.2959   -3.1437   -5.2260 H   0  0  0  0  0  0  0  0  0  0  0  0
   20.5440   -1.8915   -5.2758 H   0  0  0  0  0  0  0  0  0  0  0  0
   18.9203    0.4511   -6.5268 H   0  0  0  0  0  0  0  0  0  0  0  0
   20.0698    0.4379   -5.1748 H   0  0  0  0  0  0  0  0  0  0  0  0
   18.4583    1.0713   -4.9291 H   0  0  0  0  0  0  0  0  0  0  0  0
   14.7503   -1.8553   -7.5335 H   0  0  0  0  0  0  0  0  0  0  0  0
   15.0051   -0.2775   -6.7332 H   0  0  0  0  0  0  0  0  0  0  0  0
   13.4562   -0.6271   -7.4760 H   0  0  0  0  0  0  0  0  0  0  0  0
   11.8249   -1.4923   -6.3231 H   0  0  0  0  0  0  0  0  0  0  0  0
   12.2546   -2.8617   -3.6029 H   0  0  0  0  0  0  0  0  0  0  0  0
   11.9765   -3.5820   -5.1308 H   0  0  0  0  0  0  0  0  0  0  0  0
    9.7445   -1.8522   -4.0939 H   0  0  0  0  0  0  0  0  0  0  0  0
    9.8754   -4.5572   -5.5202 H   0  0  0  0  0  0  0  0  0  0  0  0
    9.6839   -2.9927   -6.3362 H   0  0  0  0  0  0  0  0  0  0  0  0
    8.4314   -3.5817   -5.2232 H   0  0  0  0  0  0  0  0  0  0  0  0
   10.4102   -4.6734   -3.0476 H   0  0  0  0  0  0  0  0  0  0  0  0
    8.9182   -3.7770   -2.7437 H   0  0  0  0  0  0  0  0  0  0  0  0
   10.4460   -3.1920   -2.0817 H   0  0  0  0  0  0  0  0  0  0  0  0
   12.8311   -1.2671   -2.9530 H   0  0  0  0  0  0  0  0  0  0  0  0
   11.1262   -0.7092   -3.2135 H   0  0  0  0  0  0  0  0  0  0  0  0
   11.9555   -0.4179   -1.8331 H   0  0  0  0  0  0  0  0  0  0  0  0
   12.7843    2.1286   -2.1046 H   0  0  0  0  0  0  0  0  0  0  0  0
   12.0004    3.5165   -4.1769 H   0  0  0  0  0  0  0  0  0  0  0  0
   13.6696    4.7659   -1.8660 H   0  0  0  0  0  0  0  0  0  0  0  0
   11.9502    4.5442   -1.7764 H   0  0  0  0  0  0  0  0  0  0  0  0
   12.5949    5.6478   -2.9377 H   0  0  0  0  0  0  0  0  0  0  0  0
   14.9008    4.4733   -3.8443 H   0  0  0  0  0  0  0  0  0  0  0  0
   13.6901    5.0598   -4.9685 H   0  0  0  0  0  0  0  0  0  0  0  0
   14.4224    3.4728   -5.2296 H   0  0  0  0  0  0  0  0  0  0  0  0
   16.4098    1.0482   -4.4152 H   0  0  0  0  0  0  0  0  0  0  0  0
   14.7868    1.4868   -4.6404 H   0  0  0  0  0  0  0  0  0  0  0  0
   15.0461   -0.1741   -4.3816 H   0  0  0  0  0  0  0  0  0  0  0  0
  1  2  1  0  0  0  0
  1 85  1  0  0  0  0
  1 86  1  0  0  0  0
  1 87  1  0  0  0  0
  2  3  2  0  0  0  0
  2 88  1  0  0  0  0
  3  4  1  0  0  0  0
  3 89  1  0  0  0  0
  4  5  1  0  0  0  0
  4 90  1  0  0  0  0
  4 91  1  0  0  0  0
  5  6  1  0  0  0  0
  5  7  1  0  0  0  0
  5 92  1  1  0  0  0
  6 93  1  0  0  0  0
  6 94  1  0  0  0  0
  6 95  1  0  0  0  0
  7  8  1  0  0  0  0
  7 96  1  1  0  0  0
  8 97  1  0  0  0  0
  9 10  1  0  0  0  0
  9 83  1  0  0  0  0
  9  7  1  0  0  0  0
  9 98  1  1  0  0  0
 10 11  2  0  0  0  0
 10 12  1  0  0  0  0
 12 13  1  0  0  0  0
 12 99  1  0  0  0  0
 13 14  1  0  0  0  0
 13 16  1  0  0  0  0
 13100  1  6  0  0  0
 14 15  1  0  0  0  0
 14101  1  0  0  0  0
 14102  1  0  0  0  0
 15103  1  0  0  0  0
 15104  1  0  0  0  0
 15105  1  0  0  0  0
 16 17  2  0  0  0  0
 16 18  1  0  0  0  0
 18 19  1  0  0  0  0
 18 20  1  0  0  0  0
 19106  1  0  0  0  0
 19107  1  0  0  0  0
 19108  1  0  0  0  0
 20 21  1  0  0  0  0
 20109  1  0  0  0  0
 20110  1  0  0  0  0
 21 22  2  0  0  0  0
 21 23  1  0  0  0  0
 23 24  1  0  0  0  0
 23 25  1  0  0  0  0
 24111  1  0  0  0  0
 24112  1  0  0  0  0
 24113  1  0  0  0  0
 25 30  1  0  0  0  0
 25 26  1  0  0  0  0
 25114  1  6  0  0  0
 26 27  1  0  0  0  0
 26115  1  0  0  0  0
 26116  1  0  0  0  0
 27 28  1  0  0  0  0
 27 29  1  0  0  0  0
 27117  1  0  0  0  0
 28118  1  0  0  0  0
 28119  1  0  0  0  0
 28120  1  0  0  0  0
 29121  1  0  0  0  0
 29122  1  0  0  0  0
 29123  1  0  0  0  0
 30 31  2  0  0  0  0
 30 32  1  0  0  0  0
 32 33  1  0  0  0  0
 32124  1  0  0  0  0
 33 37  1  0  0  0  0
 33 34  1  0  0  0  0
 33125  1  1  0  0  0
 34 35  1  0  0  0  0
 34 36  1  0  0  0  0
 34126  1  0  0  0  0
 35127  1  0  0  0  0
 35128  1  0  0  0  0
 35129  1  0  0  0  0
 36130  1  0  0  0  0
 36131  1  0  0  0  0
 36132  1  0  0  0  0
 37 38  2  0  0  0  0
 37 39  1  0  0  0  0
 39 40  1  0  0  0  0
 39 41  1  0  0  0  0
 40133  1  0  0  0  0
 40134  1  0  0  0  0
 40135  1  0  0  0  0
 41 46  1  0  0  0  0
 41 42  1  0  0  0  0
 41136  1  6  0  0  0
 42 43  1  0  0  0  0
 42137  1  0  0  0  0
 42138  1  0  0  0  0
 43 44  1  0  0  0  0
 43 45  1  0  0  0  0
 43139  1  0  0  0  0
 44140  1  0  0  0  0
 44141  1  0  0  0  0
 44142  1  0  0  0  0
 45143  1  0  0  0  0
 45144  1  0  0  0  0
 45145  1  0  0  0  0
 46 47  2  0  0  0  0
 46 48  1  0  0  0  0
 48 49  1  0  0  0  0
 48146  1  0  0  0  0
 49 50  1  0  0  0  0
 49 51  1  0  0  0  0
 49147  1  6  0  0  0
 50148  1  0  0  0  0
 50149  1  0  0  0  0
 50150  1  0  0  0  0
 51 52  2  0  0  0  0
 51 53  1  0  0  0  0
 53 54  1  0  0  0  0
 53151  1  0  0  0  0
 54 56  1  0  0  0  0
 54 55  1  0  0  0  0
 54152  1  1  0  0  0
 55153  1  0  0  0  0
 55154  1  0  0  0  0
 55155  1  0  0  0  0
 56 57  2  0  0  0  0
 56 58  1  0  0  0  0
 58 59  1  0  0  0  0
 58156  1  0  0  0  0
 59 60  1  0  0  0  0
 59 64  1  0  0  0  0
 59157  1  1  0  0  0
 60 61  1  0  0  0  0
 60158  1  0  0  0  0
 60159  1  0  0  0  0
 61 62  1  0  0  0  0
 61 63  1  0  0  0  0
 61160  1  0  0  0  0
 62161  1  0  0  0  0
 62162  1  0  0  0  0
 62163  1  0  0  0  0
 63164  1  0  0  0  0
 63165  1  0  0  0  0
 63166  1  0  0  0  0
 64 65  2  0  0  0  0
 64 66  1  0  0  0  0
 66 67  1  0  0  0  0
 66 68  1  0  0  0  0
 67167  1  0  0  0  0
 67168  1  0  0  0  0
 67169  1  0  0  0  0
 68 69  1  0  0  0  0
 68 73  1  0  0  0  0
 68170  1  6  0  0  0
 69 70  1  0  0  0  0
 69171  1  0  0  0  0
 69172  1  0  0  0  0
 70 71  1  0  0  0  0
 70 72  1  0  0  0  0
 70173  1  0  0  0  0
 71174  1  0  0  0  0
 71175  1  0  0  0  0
 71176  1  0  0  0  0
 72177  1  0  0  0  0
 72178  1  0  0  0  0
 72179  1  0  0  0  0
 73 74  2  0  0  0  0
 73 75  1  0  0  0  0
 75 76  1  0  0  0  0
 75 77  1  0  0  0  0
 76180  1  0  0  0  0
 76181  1  0  0  0  0
 76182  1  0  0  0  0
 77 78  1  0  0  0  0
 77 81  1  0  0  0  0
 77183  1  6  0  0  0
 78 79  1  0  0  0  0
 78 80  1  0  0  0  0
 78184  1  0  0  0  0
 79185  1  0  0  0  0
 79186  1  0  0  0  0
 79187  1  0  0  0  0
 80188  1  0  0  0  0
 80189  1  0  0  0  0
 80190  1  0  0  0  0
 81 82  2  0  0  0  0
 81 83  1  0  0  0  0
 83 84  1  0  0  0  0
 84191  1  0  0  0  0
 84192  1  0  0  0  0
 84193  1  0  0  0  0
M  END
>  <Energy>
1059.89

$$$$