137644531
  -OEChem-03242010103D

 54 57  0     1  0  0  0  0  0999 V2000
    0.0064    2.2978    1.6405 O   0  0  0  0  0  0  0  0  0  0  0  0
    2.8174   -0.5758    2.3961 O   0  0  0  0  0  0  0  0  0  0  0  0
    2.3958   -2.4277    1.0811 O   0  0  0  0  0  0  0  0  0  0  0  0
    1.6998   -1.6567   -1.4115 N   0  0  2  0  0  0  0  0  0  0  0  0
   -2.6608    1.7735    0.1685 N   0  0  0  0  0  0  0  0  0  0  0  0
    2.1257    0.9097    0.0470 C   0  0  1  0  0  0  0  0  0  0  0  0
    1.3679   -0.2998    0.5687 C   0  0  1  0  0  0  0  0  0  0  0  0
    3.1861    0.3939   -0.9842 C   0  0  1  0  0  0  0  0  0  0  0  0
    0.6818   -0.9039   -0.6696 C   0  0  2  0  0  0  0  0  0  0  0  0
    2.6312   -0.6525   -2.0055 C   0  0  0  0  0  0  0  0  0  0  0  0
    1.1082    1.9534   -0.5238 C   0  0  0  0  0  0  0  0  0  0  0  0
   -0.6942   -1.3909   -0.2501 C   0  0  0  0  0  0  0  0  0  0  0  0
    3.8985    1.5336   -1.7129 C   0  0  0  0  0  0  0  0  0  0  0  0
   -0.2258    2.1535    0.2393 C   0  0  1  0  0  0  0  0  0  0  0  0
   -1.6465   -0.1984   -0.0665 C   0  0  0  0  0  0  0  0  0  0  0  0
   -1.4081    1.1856    0.0889 C   0  0  0  0  0  0  0  0  0  0  0  0
    2.2432   -1.2454    1.3565 C   0  0  0  0  0  0  0  0  0  0  0  0
    1.1385   -2.5079   -2.4555 C   0  0  0  0  0  0  0  0  0  0  0  0
   -3.0774   -0.3892   -0.0498 C   0  0  0  0  0  0  0  0  0  0  0  0
    4.5540    2.4886   -0.7350 C   0  0  0  0  0  0  0  0  0  0  0  0
   -3.6726    0.8561    0.0957 C   0  0  0  0  0  0  0  0  0  0  0  0
   -3.9158   -1.5223   -0.1495 C   0  0  0  0  0  0  0  0  0  0  0  0
   -5.0593    1.0391    0.1495 C   0  0  0  0  0  0  0  0  0  0  0  0
   -5.3051   -1.3609   -0.0979 C   0  0  0  0  0  0  0  0  0  0  0  0
    3.6782   -1.3574    3.2304 C   0  0  0  0  0  0  0  0  0  0  0  0
   -5.8669   -0.0962    0.0497 C   0  0  0  0  0  0  0  0  0  0  0  0
    2.6513    1.3920    0.8807 H   0  0  0  0  0  0  0  0  0  0  0  0
    0.6304   -0.0009    1.3190 H   0  0  0  0  0  0  0  0  0  0  0  0
    3.9517   -0.1401   -0.4014 H   0  0  0  0  0  0  0  0  0  0  0  0
    0.3905   -0.1419   -1.3992 H   0  0  0  0  0  0  0  0  0  0  0  0
    2.1297   -0.1183   -2.8249 H   0  0  0  0  0  0  0  0  0  0  0  0
    3.4829   -1.1820   -2.4513 H   0  0  0  0  0  0  0  0  0  0  0  0
    0.8986    1.7851   -1.5864 H   0  0  0  0  0  0  0  0  0  0  0  0
    1.6243    2.9224   -0.4972 H   0  0  0  0  0  0  0  0  0  0  0  0
   -0.6583   -1.9865    0.6695 H   0  0  0  0  0  0  0  0  0  0  0  0
   -1.1195   -2.0291   -1.0332 H   0  0  0  0  0  0  0  0  0  0  0  0
   -0.5961    3.1318   -0.1006 H   0  0  0  0  0  0  0  0  0  0  0  0
    3.2089    2.0841   -2.3624 H   0  0  0  0  0  0  0  0  0  0  0  0
    4.6736    1.1141   -2.3660 H   0  0  0  0  0  0  0  0  0  0  0  0
    0.5323   -3.3069   -2.0162 H   0  0  0  0  0  0  0  0  0  0  0  0
    1.9382   -3.0035   -3.0172 H   0  0  0  0  0  0  0  0  0  0  0  0
    0.5189   -1.9466   -3.1640 H   0  0  0  0  0  0  0  0  0  0  0  0
    3.8321    3.0681   -0.1554 H   0  0  0  0  0  0  0  0  0  0  0  0
    5.1722    3.2084   -1.2825 H   0  0  0  0  0  0  0  0  0  0  0  0
    5.2090    1.9558   -0.0378 H   0  0  0  0  0  0  0  0  0  0  0  0
   -2.8096    2.7653    0.2904 H   0  0  0  0  0  0  0  0  0  0  0  0
    0.6932    2.9764    1.7563 H   0  0  0  0  0  0  0  0  0  0  0  0
   -3.4950   -2.5174   -0.2638 H   0  0  0  0  0  0  0  0  0  0  0  0
   -5.4957    2.0257    0.2646 H   0  0  0  0  0  0  0  0  0  0  0  0
   -5.9496   -2.2325   -0.1738 H   0  0  0  0  0  0  0  0  0  0  0  0
    4.0689   -0.7082    4.0185 H   0  0  0  0  0  0  0  0  0  0  0  0
    4.5182   -1.7468    2.6473 H   0  0  0  0  0  0  0  0  0  0  0  0
    3.1169   -2.1743    3.6939 H   0  0  0  0  0  0  0  0  0  0  0  0
   -6.9478    0.0110    0.0879 H   0  0  0  0  0  0  0  0  0  0  0  0
  1 14  1  0  0  0  0
  1 47  1  0  0  0  0
  2 17  1  0  0  0  0
  2 25  1  0  0  0  0
  3 17  2  0  0  0  0
  4  9  1  0  0  0  0
  4 10  1  0  0  0  0
  4 18  1  0  0  0  0
  5 16  1  0  0  0  0
  5 21  1  0  0  0  0
  5 46  1  0  0  0  0
  6  7  1  0  0  0  0
  6  8  1  0  0  0  0
  6 11  1  0  0  0  0
  6 27  1  0  0  0  0
  7  9  1  0  0  0  0
  7 17  1  0  0  0  0
  7 28  1  0  0  0  0
  8 10  1  0  0  0  0
  8 13  1  0  0  0  0
  8 29  1  0  0  0  0
  9 12  1  0  0  0  0
  9 30  1  0  0  0  0
 10 31  1  0  0  0  0
 10 32  1  0  0  0  0
 11 14  1  0  0  0  0
 11 33  1  0  0  0  0
 11 34  1  0  0  0  0
 12 15  1  0  0  0  0
 12 35  1  0  0  0  0
 12 36  1  0  0  0  0
 13 20  1  0  0  0  0
 13 38  1  0  0  0  0
 13 39  1  0  0  0  0
 14 16  1  0  0  0  0
 14 37  1  0  0  0  0
 15 16  2  0  0  0  0
 15 19  1  0  0  0  0
 18 40  1  0  0  0  0
 18 41  1  0  0  0  0
 18 42  1  0  0  0  0
 19 21  1  0  0  0  0
 19 22  2  0  0  0  0
 20 43  1  0  0  0  0
 20 44  1  0  0  0  0
 20 45  1  0  0  0  0
 21 23  2  0  0  0  0
 22 24  1  0  0  0  0
 22 48  1  0  0  0  0
 23 26  1  0  0  0  0
 23 49  1  0  0  0  0
 24 26  2  0  0  0  0
 24 50  1  0  0  0  0
 25 51  1  0  0  0  0
 25 52  1  0  0  0  0
 25 53  1  0  0  0  0
 26 54  1  0  0  0  0
M  END
> <PUBCHEM_COMPOUND_CID>
137644531

> <PUBCHEM_CONFORMER_RMSD>
0.8

> <PUBCHEM_CONFORMER_DIVERSEORDER>
1
3
4
2

> <PUBCHEM_MMFF94_PARTIAL_CHARGES>
26
1 -0.68
10 0.27
12 0.18
14 0.46
15 -0.18
16 -0.33
17 0.66
18 0.27
2 -0.43
21 -0.15
22 -0.15
23 -0.15
24 -0.15
25 0.28
26 -0.15
3 -0.57
4 -0.81
46 0.27
47 0.4
48 0.15
49 0.15
5 0.03
50 0.15
54 0.15
7 0.06
9 0.27

> <PUBCHEM_EFFECTIVE_ROTOR_COUNT>
4.4

> <PUBCHEM_PHARMACOPHORE_FEATURES>
10
1 1 acceptor
1 1 donor
1 20 hydrophobe
1 3 acceptor
1 4 cation
1 5 cation
1 5 donor
5 5 15 16 19 21 rings
6 19 21 22 23 24 26 rings
6 4 6 7 8 9 10 rings

> <PUBCHEM_HEAVY_ATOM_COUNT>
26

> <PUBCHEM_ATOM_DEF_STEREO_COUNT>
5

> <PUBCHEM_ATOM_UDEF_STEREO_COUNT>
0

> <PUBCHEM_BOND_DEF_STEREO_COUNT>
0

> <PUBCHEM_BOND_UDEF_STEREO_COUNT>
0

> <PUBCHEM_ISOTOPIC_ATOM_COUNT>
0

> <PUBCHEM_COMPONENT_COUNT>
1

> <PUBCHEM_CACTVS_TAUTO_COUNT>
-1

> <PUBCHEM_CONFORMER_ID>
083449F300000001

> <PUBCHEM_MMFF94_ENERGY>
90.4781

> <PUBCHEM_FEATURE_SELFOVERLAP>
50.832

> <PUBCHEM_SHAPE_FINGERPRINT>
10369192 42 15049170264272478106
10498660 4 18340497707115050853
10759866 29 18260551134063610551
11578080 2 17241028921426767533
12236239 1 18260546727659364328
12553582 1 18130782391477754005
12616999 72 18272660038493173269
12788726 201 18341057328748698145
13083527 12 17895741912469389520
13224815 77 18131070407547192447
13533116 47 17095520665330371011
14178342 30 18052249592637409505
14739800 52 18263915695833192920
15196674 1 18341905094888644333
15664445 248 18262251004789663156
15848702 105 18338812220424955300
1601671 61 18201727266568175381
17349148 13 18272081704621018711
17492 54 18193859217284433204
1813 80 17097485393915129946
18681886 176 18129386058575739284
20600515 1 17615953427502493256
20691752 17 17531540797080537469
21033648 29 16343699907493569817
21421861 104 18114747023187055945
22393880 68 18334583395124511413
229495 10 17532627179272722046
23557571 272 18129656375063423539
23559900 14 18056766425259738999
25222932 49 17970636405357855963
298252 57 18198919191512413574
3004659 81 18187364281681326259
34934 24 18339645662870549292
394222 165 18261396689066286608
4280585 95 17694240875930379694
4340502 62 17240488047631315491
474 4 17459201839856355324
5104073 3 18334296462151521161
54040823 5 18260269676325077353
5895379 119 18125725586634782216
59755656 520 17823981332815964798
67856867 119 18040990743766192416
6823239 73 18060426836606618015

> <PUBCHEM_SHAPE_MULTIPOLES>
507.5
9.93
2.67
2.07
12.01
0.27
-0.89
0.95
-0.15
-1.76
0.14
-3.71
-1.41
-1.61

> <PUBCHEM_SHAPE_SELFOVERLAP>
1090.293

> <PUBCHEM_SHAPE_VOLUME>
276.6

> <PUBCHEM_COORDINATE_TYPE>
2
5
10

$$$$