72735229
  -OEChem-03242010103D

 48 51  0     0  0  0  0  0  0999 V2000
    3.2913   -2.7999    0.1795 O   0  0  0  0  0  0  0  0  0  0  0  0
    5.6864   -1.4648   -0.2735 O   0  0  0  0  0  0  0  0  0  0  0  0
   -2.7814   -4.7774    1.2923 O   0  5  0  0  0  0  0  0  0  0  0  0
   -1.6125   -3.1191    2.1306 O   0  0  0  0  0  0  0  0  0  0  0  0
   -2.5511    0.7966   -0.8372 N   0  0  0  0  0  0  0  0  0  0  0  0
   -0.2254    0.7248   -0.4876 N   0  0  0  0  0  0  0  0  0  0  0  0
    0.9531    2.6559    0.3423 N   0  0  0  0  0  0  0  0  0  0  0  0
   -2.4042   -3.5809    1.2737 N   0  3  0  0  0  0  0  0  0  0  0  0
   -1.4175    2.7704   -0.0013 C   0  0  0  0  0  0  0  0  0  0  0  0
   -1.3599    1.4475   -0.4306 C   0  0  0  0  0  0  0  0  0  0  0  0
   -0.1981    3.3491    0.3868 C   0  0  0  0  0  0  0  0  0  0  0  0
    0.8770    1.3817   -0.0924 C   0  0  0  0  0  0  0  0  0  0  0  0
    2.1138    0.6462   -0.1375 C   0  0  0  0  0  0  0  0  0  0  0  0
   -2.6152    3.5047    0.0494 C   0  0  0  0  0  0  0  0  0  0  0  0
   -2.9586   -0.5462   -0.7951 C   0  0  0  0  0  0  0  0  0  0  0  0
   -0.2159    4.6718    0.8225 C   0  0  0  0  0  0  0  0  0  0  0  0
    2.1100   -0.7365    0.0462 C   0  0  0  0  0  0  0  0  0  0  0  0
    3.3157    1.3162   -0.3659 C   0  0  0  0  0  0  0  0  0  0  0  0
    3.3082   -1.4494    0.0013 C   0  0  0  0  0  0  0  0  0  0  0  0
   -2.6038    4.8247    0.4889 C   0  0  0  0  0  0  0  0  0  0  0  0
   -1.4027    5.4087    0.8758 C   0  0  0  0  0  0  0  0  0  0  0  0
    4.5101   -0.7794   -0.2270 C   0  0  0  0  0  0  0  0  0  0  0  0
    4.5139    0.6033   -0.4105 C   0  0  0  0  0  0  0  0  0  0  0  0
   -2.4828   -1.3887    0.2096 C   0  0  0  0  0  0  0  0  0  0  0  0
   -3.8396   -1.0377   -1.7584 C   0  0  0  0  0  0  0  0  0  0  0  0
   -2.8882   -2.7228    0.2510 C   0  0  0  0  0  0  0  0  0  0  0  0
   -4.2447   -2.3719   -1.7171 C   0  0  0  0  0  0  0  0  0  0  0  0
   -3.7690   -3.2144   -0.7123 C   0  0  0  0  0  0  0  0  0  0  0  0
    2.0211   -3.4075    0.4077 C   0  0  0  0  0  0  0  0  0  0  0  0
    6.8700   -0.7051   -0.5115 C   0  0  0  0  0  0  0  0  0  0  0  0
   -3.1259    1.3716   -1.4471 H   0  0  0  0  0  0  0  0  0  0  0  0
   -3.5712    3.0759   -0.2379 H   0  0  0  0  0  0  0  0  0  0  0  0
    0.7109    5.1520    1.1309 H   0  0  0  0  0  0  0  0  0  0  0  0
    1.1568   -1.2187    0.2353 H   0  0  0  0  0  0  0  0  0  0  0  0
    3.3502    2.3917   -0.5230 H   0  0  0  0  0  0  0  0  0  0  0  0
   -3.5268    5.3948    0.5314 H   0  0  0  0  0  0  0  0  0  0  0  0
   -1.3851    6.4386    1.2206 H   0  0  0  0  0  0  0  0  0  0  0  0
    5.4081    1.1887   -0.5943 H   0  0  0  0  0  0  0  0  0  0  0  0
   -1.8082   -0.9913    0.9642 H   0  0  0  0  0  0  0  0  0  0  0  0
   -4.2176   -0.3925   -2.5474 H   0  0  0  0  0  0  0  0  0  0  0  0
   -4.9305   -2.7543   -2.4675 H   0  0  0  0  0  0  0  0  0  0  0  0
   -4.1061   -4.2478   -0.7117 H   0  0  0  0  0  0  0  0  0  0  0  0
    2.1953   -4.4824    0.5239 H   0  0  0  0  0  0  0  0  0  0  0  0
    1.3536   -3.2869   -0.4525 H   0  0  0  0  0  0  0  0  0  0  0  0
    1.5678   -3.0582    1.3417 H   0  0  0  0  0  0  0  0  0  0  0  0
    6.8514   -0.2272   -1.4969 H   0  0  0  0  0  0  0  0  0  0  0  0
    7.0593    0.0107    0.2958 H   0  0  0  0  0  0  0  0  0  0  0  0
    7.7091   -1.4086   -0.5154 H   0  0  0  0  0  0  0  0  0  0  0  0
  1 19  1  0  0  0  0
  1 29  1  0  0  0  0
  2 22  1  0  0  0  0
  2 30  1  0  0  0  0
  3  8  1  0  0  0  0
  4  8  2  0  0  0  0
  5 10  1  0  0  0  0
  5 15  1  0  0  0  0
  5 31  1  0  0  0  0
  6 10  2  0  0  0  0
  6 12  1  0  0  0  0
  7 11  1  0  0  0  0
  7 12  2  0  0  0  0
  8 26  1  0  0  0  0
  9 10  1  0  0  0  0
  9 11  1  0  0  0  0
  9 14  2  0  0  0  0
 11 16  2  0  0  0  0
 12 13  1  0  0  0  0
 13 17  2  0  0  0  0
 13 18  1  0  0  0  0
 14 20  1  0  0  0  0
 14 32  1  0  0  0  0
 15 24  2  0  0  0  0
 15 25  1  0  0  0  0
 16 21  1  0  0  0  0
 16 33  1  0  0  0  0
 17 19  1  0  0  0  0
 17 34  1  0  0  0  0
 18 23  2  0  0  0  0
 18 35  1  0  0  0  0
 19 22  2  0  0  0  0
 20 21  2  0  0  0  0
 20 36  1  0  0  0  0
 21 37  1  0  0  0  0
 22 23  1  0  0  0  0
 23 38  1  0  0  0  0
 24 26  1  0  0  0  0
 24 39  1  0  0  0  0
 25 27  2  0  0  0  0
 25 40  1  0  0  0  0
 26 28  2  0  0  0  0
 27 28  1  0  0  0  0
 27 41  1  0  0  0  0
 28 42  1  0  0  0  0
 29 43  1  0  0  0  0
 29 44  1  0  0  0  0
 29 45  1  0  0  0  0
 30 46  1  0  0  0  0
 30 47  1  0  0  0  0
 30 48  1  0  0  0  0
M  CHG  2   3  -1   8   1
M  END
> <PUBCHEM_COMPOUND_CID>
72735229

> <PUBCHEM_CONFORMER_RMSD>
0.8

> <PUBCHEM_CONFORMER_DIVERSEORDER>
1
111
55
12
64
118
22
29
85
44
41
86
80
95
25
106
49
71
34
18
36
83
43
21
117
9
84
17
105
110
67
47
78
89
15
39
59
14
94
27
53
19
108
2
30
100
107
101
52
4
33
81
40
11
102
35
8
5
109
37
104
120
65
51
26
58
87
90
82
38
45
48
79
119
93
103
61
57
113
73
3
99
96
13
28
97
115
76
31
60
88
46
20
62
56
42
10
112
50
91
68
92
72
77
24
114
98
63
69
75
7
70
116
6
74
32
54
66
23
16

> <PUBCHEM_MMFF94_PARTIAL_CHARGES>
40
1 -0.36
10 0.41
11 0.31
12 0.62
14 -0.15
15 0.1
16 -0.15
17 -0.15
18 -0.15
19 0.08
2 -0.36
20 -0.15
21 -0.15
22 0.08
23 -0.15
24 -0.15
25 -0.15
26 0.13
27 -0.15
28 -0.15
29 0.28
3 -0.52
30 0.28
31 0.4
32 0.15
33 0.15
34 0.15
35 0.15
36 0.15
37 0.15
38 0.15
39 0.15
4 -0.52
40 0.15
41 0.15
42 0.15
5 -0.6
6 -0.62
7 -0.62
8 0.91

> <PUBCHEM_EFFECTIVE_ROTOR_COUNT>
6

> <PUBCHEM_PHARMACOPHORE_FEATURES>
12
1 1 acceptor
1 2 acceptor
1 3 acceptor
1 3 anion
1 4 acceptor
1 5 donor
3 5 6 10 cation
3 6 7 12 cation
6 13 17 18 19 22 23 rings
6 15 24 25 26 27 28 rings
6 6 7 9 10 11 12 rings
6 9 11 14 16 20 21 rings

> <PUBCHEM_HEAVY_ATOM_COUNT>
30

> <PUBCHEM_ATOM_DEF_STEREO_COUNT>
0

> <PUBCHEM_ATOM_UDEF_STEREO_COUNT>
0

> <PUBCHEM_BOND_DEF_STEREO_COUNT>
0

> <PUBCHEM_BOND_UDEF_STEREO_COUNT>
0

> <PUBCHEM_ISOTOPIC_ATOM_COUNT>
0

> <PUBCHEM_COMPONENT_COUNT>
1

> <PUBCHEM_CACTVS_TAUTO_COUNT>
3

> <PUBCHEM_CONFORMER_ID>
0455D9FD00000001

> <PUBCHEM_MMFF94_ENERGY>
127.7832

> <PUBCHEM_FEATURE_SELFOVERLAP>
61.155

> <PUBCHEM_SHAPE_FINGERPRINT>
10190206 1 17829924219245661124
10411042 1 18270113638356619407
10616163 171 18269834225191109590
10940486 97 18048887295313203052
1100329 8 17617373983414214378
11227688 84 18052815042251247990
12107183 9 18200326549669914651
12553582 1 18410006667501315035
12788726 201 18337663114509235923
13402501 40 18043812210942135035
13631057 29 18413101750189870572
138480 1 15674922698243087981
13911987 19 17686069696381477108
14068700 686 18272925038814469952
14363568 33 17688323694816789098
14659021 117 18410003326090722472
14790565 3 17476080125100890008
14844126 61 18338519625308780889
14866123 147 18340768135783814537
14931854 50 18188195538073749367
15250474 111 18192983821613933662
15351339 4 18117535381118794911
15420108 30 17628082196894720113
15463212 79 18048030766511524976
15927050 60 17837491847966276205
15968369 26 17687725547601459861
16628084 112 18049150078470954645
20101258 96 18343023319351584800
21133410 171 17545541982328443454
21133410 32 16444769352596637970
23558518 356 18265618684693711310
23559900 14 17682386298236506791
4015057 19 18123456440028476263
4073 2 18268432327161323054
463206 1 18265329688944980943
5309563 4 18268988859394517159
6004065 56 17908683370054252543
613672 6 18195507401950810794
9709674 26 17759790843206410679

> <PUBCHEM_SHAPE_MULTIPOLES>
573.98
9.98
7.77
1.18
16.47
5.08
0.12
-7.52
-3.09
-9.67
3.48
-1.27
-1.08
-0.58

> <PUBCHEM_SHAPE_SELFOVERLAP>
1271.944

> <PUBCHEM_SHAPE_VOLUME>
307.2

> <PUBCHEM_COORDINATE_TYPE>
2
5
10

$$$$