22310708
  -OEChem-03242010103D

 54 57  0     0  0  0  0  0  0999 V2000
    2.4523   -3.6392    0.3499 O   0  0  0  0  0  0  0  0  0  0  0  0
   -3.1069   -2.3898    1.6944 O   0  0  0  0  0  0  0  0  0  0  0  0
    5.1174   -3.1967   -0.3016 O   0  0  0  0  0  0  0  0  0  0  0  0
   -5.2044   -2.8415   -0.0722 O   0  0  0  0  0  0  0  0  0  0  0  0
   -1.9504    1.6193   -0.6893 N   0  0  0  0  0  0  0  0  0  0  0  0
    0.2419    0.8042   -0.4327 N   0  0  0  0  0  0  0  0  0  0  0  0
    2.0363    2.2819    0.2024 N   0  0  0  0  0  0  0  0  0  0  0  0
   -0.1841    3.1523   -0.0488 C   0  0  0  0  0  0  0  0  0  0  0  0
   -0.5887    1.8625   -0.3815 C   0  0  0  0  0  0  0  0  0  0  0  0
    1.1795    3.3172    0.2440 C   0  0  0  0  0  0  0  0  0  0  0  0
    1.5211    1.0818   -0.1337 C   0  0  0  0  0  0  0  0  0  0  0  0
    2.4446   -0.0217   -0.1760 C   0  0  0  0  0  0  0  0  0  0  0  0
   -2.7704    0.4908   -0.5310 C   0  0  0  0  0  0  0  0  0  0  0  0
   -1.0708    4.2421   -0.0022 C   0  0  0  0  0  0  0  0  0  0  0  0
    1.6220    4.5939    0.5812 C   0  0  0  0  0  0  0  0  0  0  0  0
    2.0018   -1.3131    0.1101 C   0  0  0  0  0  0  0  0  0  0  0  0
    3.7823    0.2004   -0.5030 C   0  0  0  0  0  0  0  0  0  0  0  0
   -2.5330   -0.4032    0.5131 C   0  0  0  0  0  0  0  0  0  0  0  0
   -0.6016    5.5070    0.3377 C   0  0  0  0  0  0  0  0  0  0  0  0
   -3.8230    0.2640   -1.4176 C   0  0  0  0  0  0  0  0  0  0  0  0
    2.8964   -2.3826    0.0687 C   0  0  0  0  0  0  0  0  0  0  0  0
    0.7465    5.6828    0.6297 C   0  0  0  0  0  0  0  0  0  0  0  0
   -3.3484   -1.5239    0.6708 C   0  0  0  0  0  0  0  0  0  0  0  0
    4.2342   -2.1605   -0.2583 C   0  0  0  0  0  0  0  0  0  0  0  0
    4.6771   -0.8689   -0.5439 C   0  0  0  0  0  0  0  0  0  0  0  0
   -4.4010   -1.7509   -0.2159 C   0  0  0  0  0  0  0  0  0  0  0  0
   -4.6382   -0.8570   -1.2602 C   0  0  0  0  0  0  0  0  0  0  0  0
    1.0708   -3.7809    0.6748 C   0  0  0  0  0  0  0  0  0  0  0  0
   -2.0119   -2.0857    2.5560 C   0  0  0  0  0  0  0  0  0  0  0  0
    6.4663   -2.8846   -0.6440 C   0  0  0  0  0  0  0  0  0  0  0  0
   -6.2577   -3.0001   -1.0207 C   0  0  0  0  0  0  0  0  0  0  0  0
   -2.3435    2.3165   -1.3158 H   0  0  0  0  0  0  0  0  0  0  0  0
   -2.1306    4.1371   -0.2166 H   0  0  0  0  0  0  0  0  0  0  0  0
    2.6724    4.7581    0.8142 H   0  0  0  0  0  0  0  0  0  0  0  0
    0.9584   -1.4421    0.3769 H   0  0  0  0  0  0  0  0  0  0  0  0
    4.1556    1.1938   -0.7407 H   0  0  0  0  0  0  0  0  0  0  0  0
   -1.7178   -0.1735    1.1902 H   0  0  0  0  0  0  0  0  0  0  0  0
   -1.2834    6.3510    0.3767 H   0  0  0  0  0  0  0  0  0  0  0  0
   -4.0178    0.9528   -2.2359 H   0  0  0  0  0  0  0  0  0  0  0  0
    1.1211    6.6668    0.8964 H   0  0  0  0  0  0  0  0  0  0  0  0
    5.6999   -0.6225   -0.8074 H   0  0  0  0  0  0  0  0  0  0  0  0
   -5.4361   -0.9691   -1.9861 H   0  0  0  0  0  0  0  0  0  0  0  0
    0.8346   -3.2731    1.6144 H   0  0  0  0  0  0  0  0  0  0  0  0
    0.4206   -3.4725   -0.1510 H   0  0  0  0  0  0  0  0  0  0  0  0
    0.8873   -4.8481    0.8384 H   0  0  0  0  0  0  0  0  0  0  0  0
   -1.0628   -2.0619    2.0143 H   0  0  0  0  0  0  0  0  0  0  0  0
   -2.1904   -1.1625    3.1179 H   0  0  0  0  0  0  0  0  0  0  0  0
   -1.9413   -2.8968    3.2880 H   0  0  0  0  0  0  0  0  0  0  0  0
    7.0280   -3.8245   -0.6301 H   0  0  0  0  0  0  0  0  0  0  0  0
    6.9295   -2.2266    0.0991 H   0  0  0  0  0  0  0  0  0  0  0  0
    6.5422   -2.4842   -1.6607 H   0  0  0  0  0  0  0  0  0  0  0  0
   -6.9816   -2.1801   -0.9609 H   0  0  0  0  0  0  0  0  0  0  0  0
   -5.8695   -3.1407   -2.0353 H   0  0  0  0  0  0  0  0  0  0  0  0
   -6.7942   -3.9173   -0.7560 H   0  0  0  0  0  0  0  0  0  0  0  0
  1 21  1  0  0  0  0
  1 28  1  0  0  0  0
  2 23  1  0  0  0  0
  2 29  1  0  0  0  0
  3 24  1  0  0  0  0
  3 30  1  0  0  0  0
  4 26  1  0  0  0  0
  4 31  1  0  0  0  0
  5  9  1  0  0  0  0
  5 13  1  0  0  0  0
  5 32  1  0  0  0  0
  6  9  2  0  0  0  0
  6 11  1  0  0  0  0
  7 10  1  0  0  0  0
  7 11  2  0  0  0  0
  8  9  1  0  0  0  0
  8 10  1  0  0  0  0
  8 14  2  0  0  0  0
 10 15  2  0  0  0  0
 11 12  1  0  0  0  0
 12 16  2  0  0  0  0
 12 17  1  0  0  0  0
 13 18  2  0  0  0  0
 13 20  1  0  0  0  0
 14 19  1  0  0  0  0
 14 33  1  0  0  0  0
 15 22  1  0  0  0  0
 15 34  1  0  0  0  0
 16 21  1  0  0  0  0
 16 35  1  0  0  0  0
 17 25  2  0  0  0  0
 17 36  1  0  0  0  0
 18 23  1  0  0  0  0
 18 37  1  0  0  0  0
 19 22  2  0  0  0  0
 19 38  1  0  0  0  0
 20 27  2  0  0  0  0
 20 39  1  0  0  0  0
 21 24  2  0  0  0  0
 22 40  1  0  0  0  0
 23 26  2  0  0  0  0
 24 25  1  0  0  0  0
 25 41  1  0  0  0  0
 26 27  1  0  0  0  0
 27 42  1  0  0  0  0
 28 43  1  0  0  0  0
 28 44  1  0  0  0  0
 28 45  1  0  0  0  0
 29 46  1  0  0  0  0
 29 47  1  0  0  0  0
 29 48  1  0  0  0  0
 30 49  1  0  0  0  0
 30 50  1  0  0  0  0
 30 51  1  0  0  0  0
 31 52  1  0  0  0  0
 31 53  1  0  0  0  0
 31 54  1  0  0  0  0
M  END
> <PUBCHEM_COMPOUND_CID>
22310708

> <PUBCHEM_CONFORMER_RMSD>
1

> <PUBCHEM_CONFORMER_DIVERSEORDER>
1
51
67
13
21
81
6
39
17
63
23
58
59
72
14
34
57
16
15
45
47
53
61
9
30
11
66
60
18
48
65
5
24
3
83
20
50
73
41
27
12
36
8
75
31
7
80
19
26
55
2
64
79
40
35
32
22
76
29
77
10
69
37
70
4
54
28
42
49
82
44
74
46
68
78
56
38
25
43
33
71
52
62

> <PUBCHEM_MMFF94_PARTIAL_CHARGES>
40
1 -0.36
10 0.31
11 0.62
13 0.1
14 -0.15
15 -0.15
16 -0.15
17 -0.15
18 -0.15
19 -0.15
2 -0.36
20 -0.15
21 0.08
22 -0.15
23 0.08
24 0.08
25 -0.15
26 0.08
27 -0.15
28 0.28
29 0.28
3 -0.36
30 0.28
31 0.28
32 0.4
33 0.15
34 0.15
35 0.15
36 0.15
37 0.15
38 0.15
39 0.15
4 -0.36
40 0.15
41 0.15
42 0.15
5 -0.6
6 -0.62
7 -0.62
9 0.41

> <PUBCHEM_EFFECTIVE_ROTOR_COUNT>
7

> <PUBCHEM_PHARMACOPHORE_FEATURES>
11
1 1 acceptor
1 2 acceptor
1 3 acceptor
1 4 acceptor
1 5 donor
3 5 6 9 cation
3 6 7 11 cation
6 12 16 17 21 24 25 rings
6 13 18 20 23 26 27 rings
6 6 7 8 9 10 11 rings
6 8 10 14 15 19 22 rings

> <PUBCHEM_HEAVY_ATOM_COUNT>
31

> <PUBCHEM_ATOM_DEF_STEREO_COUNT>
0

> <PUBCHEM_ATOM_UDEF_STEREO_COUNT>
0

> <PUBCHEM_BOND_DEF_STEREO_COUNT>
0

> <PUBCHEM_BOND_UDEF_STEREO_COUNT>
0

> <PUBCHEM_ISOTOPIC_ATOM_COUNT>
0

> <PUBCHEM_COMPONENT_COUNT>
1

> <PUBCHEM_CACTVS_TAUTO_COUNT>
3

> <PUBCHEM_CONFORMER_ID>
01546F3400000001

> <PUBCHEM_MMFF94_ENERGY>
145.6572

> <PUBCHEM_FEATURE_SELFOVERLAP>
56.003

> <PUBCHEM_SHAPE_FINGERPRINT>
10411042 1 18412543201950290638
10622 236 17414411091038305951
1100329 8 16895111314988696802
11049842 53 15071669386481685921
11227688 84 18341039766357892950
114674 6 18190455167696444203
12107183 9 18271821103491685905
12553582 1 18336546006231474329
12788726 201 18046904875067445035
13533116 47 18195531626505259455
1361 2 17689709080216951127
13631057 29 18266458711920366430
13773456 30 17617368924290386395
138480 1 18339640143552951437
13911987 19 17973745841595272652
13955234 65 17982169229944743705
14068700 686 18271517582405191618
14363568 33 18048056321529675226
14659021 117 18192988228012762656
14844126 61 18048603612090559280
14866123 147 18124316000296764857
14931854 50 17970060046258151727
15250474 111 17829886534785912554
15351339 4 17827059720544770665
15400415 2 17042606415373843180
15463212 79 17469042160004004320
15927050 60 17693094480207017310
16628084 112 17543060183374457989
19427546 62 17401479846352674685
20028762 73 17552070023717282532
21133410 171 17468706946196766563
21133410 32 16444784681419345978
23559900 14 18338223977583109965
23845131 108 16900733710779117897
24893989 43 17340694393540482239
3421961 26 18340484594548318821
4403749 210 16680619201134117225
4616759 239 17553459411953241962
463206 1 18408044030645867735
5309563 4 18412260631846902111
6004065 56 18266731570533395658
613672 6 18195779964954654895
6669772 16 17765442332873641524
6673363 416 18270975566634490460
9709674 26 18118117211595104829

> <PUBCHEM_SHAPE_MULTIPOLES>
599.55
11.02
8
1.2
1.34
11.29
-0.54
-17.97
3.83
-2.82
-1.84
1.27
-0.78
0.85

> <PUBCHEM_SHAPE_SELFOVERLAP>
1318.393

> <PUBCHEM_SHAPE_VOLUME>
322.2

> <PUBCHEM_COORDINATE_TYPE>
2
5
10

$$$$