5281767
  -OEChem-03242010103D

 47 48  0     0  0  0  0  0  0999 V2000
    6.4302    2.6747   -0.1310 O   0  0  0  0  0  0  0  0  0  0  0  0
   -8.2769   -0.3553    0.3246 O   0  0  0  0  0  0  0  0  0  0  0  0
    8.7314    1.2783    0.5594 O   0  0  0  0  0  0  0  0  0  0  0  0
   -8.0221    2.3938    0.0085 O   0  0  0  0  0  0  0  0  0  0  0  0
    1.3785   -2.8909   -0.4813 O   0  0  0  0  0  0  0  0  0  0  0  0
   -1.2884   -2.6458   -0.5395 O   0  0  0  0  0  0  0  0  0  0  0  0
    5.1525   -0.7287    0.0686 C   0  0  0  0  0  0  0  0  0  0  0  0
   -4.6948   -0.0438   -0.2477 C   0  0  0  0  0  0  0  0  0  0  0  0
    5.1863    0.6439   -0.1147 C   0  0  0  0  0  0  0  0  0  0  0  0
    6.3924    1.3251    0.0496 C   0  0  0  0  0  0  0  0  0  0  0  0
   -5.9324   -0.6158   -0.0022 C   0  0  0  0  0  0  0  0  0  0  0  0
   -7.0580    0.2033    0.0848 C   0  0  0  0  0  0  0  0  0  0  0  0
    6.2910   -1.4393    0.4113 C   0  0  0  0  0  0  0  0  0  0  0  0
   -4.5516    1.3245   -0.4090 C   0  0  0  0  0  0  0  0  0  0  0  0
    7.5478    0.6241    0.3946 C   0  0  0  0  0  0  0  0  0  0  0  0
   -6.9305    1.5832   -0.0755 C   0  0  0  0  0  0  0  0  0  0  0  0
    7.4972   -0.7580    0.5754 C   0  0  0  0  0  0  0  0  0  0  0  0
    3.8780   -1.4485   -0.1046 C   0  0  0  0  0  0  0  0  0  0  0  0
   -5.6773    2.1437   -0.3224 C   0  0  0  0  0  0  0  0  0  0  0  0
   -3.5054   -0.9093   -0.3389 C   0  0  0  0  0  0  0  0  0  0  0  0
    2.6656   -0.8709   -0.0536 C   0  0  0  0  0  0  0  0  0  0  0  0
   -2.2416   -0.4862   -0.1894 C   0  0  0  0  0  0  0  0  0  0  0  0
    1.3772   -1.5344   -0.2159 C   0  0  0  0  0  0  0  0  0  0  0  0
   -1.1161   -1.4546   -0.3157 C   0  0  0  0  0  0  0  0  0  0  0  0
    0.2308   -0.8361   -0.1419 C   0  0  0  0  0  0  0  0  0  0  0  0
    5.2058    3.3164   -0.4824 C   0  0  0  0  0  0  0  0  0  0  0  0
   -8.6696   -0.4933    1.6888 C   0  0  0  0  0  0  0  0  0  0  0  0
    4.2866    1.1605   -0.4191 H   0  0  0  0  0  0  0  0  0  0  0  0
   -6.0404   -1.6904    0.1243 H   0  0  0  0  0  0  0  0  0  0  0  0
    6.2675   -2.5159    0.5574 H   0  0  0  0  0  0  0  0  0  0  0  0
   -3.6010    1.8021   -0.6242 H   0  0  0  0  0  0  0  0  0  0  0  0
    8.3938   -1.3098    0.8449 H   0  0  0  0  0  0  0  0  0  0  0  0
    3.9886   -2.5118   -0.2953 H   0  0  0  0  0  0  0  0  0  0  0  0
   -5.5726    3.2175   -0.4526 H   0  0  0  0  0  0  0  0  0  0  0  0
   -3.7106   -1.9581   -0.5411 H   0  0  0  0  0  0  0  0  0  0  0  0
    2.5769    0.1906    0.1655 H   0  0  0  0  0  0  0  0  0  0  0  0
   -1.9880    0.5428    0.0362 H   0  0  0  0  0  0  0  0  0  0  0  0
    0.2561    0.2329    0.0541 H   0  0  0  0  0  0  0  0  0  0  0  0
    8.5822    2.2258    0.3962 H   0  0  0  0  0  0  0  0  0  0  0  0
    4.8405    2.9827   -1.4597 H   0  0  0  0  0  0  0  0  0  0  0  0
    5.4198    4.3865   -0.5749 H   0  0  0  0  0  0  0  0  0  0  0  0
    4.4524    3.2126    0.3060 H   0  0  0  0  0  0  0  0  0  0  0  0
   -8.8097    1.8390    0.1428 H   0  0  0  0  0  0  0  0  0  0  0  0
   -8.6868    0.4800    2.1894 H   0  0  0  0  0  0  0  0  0  0  0  0
   -7.9910   -1.1730    2.2139 H   0  0  0  0  0  0  0  0  0  0  0  0
   -9.6773   -0.9171    1.7139 H   0  0  0  0  0  0  0  0  0  0  0  0
    2.2134   -3.2876   -0.1906 H   0  0  0  0  0  0  0  0  0  0  0  0
  1 10  1  0  0  0  0
  1 26  1  0  0  0  0
  2 12  1  0  0  0  0
  2 27  1  0  0  0  0
  3 15  1  0  0  0  0
  3 39  1  0  0  0  0
  4 16  1  0  0  0  0
  4 43  1  0  0  0  0
  5 23  1  0  0  0  0
  5 47  1  0  0  0  0
  6 24  2  0  0  0  0
  7  9  2  0  0  0  0
  7 13  1  0  0  0  0
  7 18  1  0  0  0  0
  8 11  2  0  0  0  0
  8 14  1  0  0  0  0
  8 20  1  0  0  0  0
  9 10  1  0  0  0  0
  9 28  1  0  0  0  0
 10 15  2  0  0  0  0
 11 12  1  0  0  0  0
 11 29  1  0  0  0  0
 12 16  2  0  0  0  0
 13 17  2  0  0  0  0
 13 30  1  0  0  0  0
 14 19  2  0  0  0  0
 14 31  1  0  0  0  0
 15 17  1  0  0  0  0
 16 19  1  0  0  0  0
 17 32  1  0  0  0  0
 18 21  2  0  0  0  0
 18 33  1  0  0  0  0
 19 34  1  0  0  0  0
 20 22  2  0  0  0  0
 20 35  1  0  0  0  0
 21 23  1  0  0  0  0
 21 36  1  0  0  0  0
 22 24  1  0  0  0  0
 22 37  1  0  0  0  0
 23 25  2  0  0  0  0
 24 25  1  0  0  0  0
 25 38  1  0  0  0  0
 26 40  1  0  0  0  0
 26 41  1  0  0  0  0
 26 42  1  0  0  0  0
 27 44  1  0  0  0  0
 27 45  1  0  0  0  0
 27 46  1  0  0  0  0
M  END
> <PUBCHEM_COMPOUND_CID>
5281767

> <PUBCHEM_CONFORMER_RMSD>
0.8

> <PUBCHEM_CONFORMER_DIVERSEORDER>
157
172
228
250
134
151
1
189
257
247
239
67
4
251
118
193
46
145
3
138
244
149
5
248
229
194
258
80
227
202
2
225
43
66
254
166
142
107
68
260
136
53
26
252
69
6
183
233
139
230
94
52
156
176
61
253
93
74
160
206
113
95
154
20
126
130
57
171
131
32
31
137
13
223
195
255
56
140
235
112
45
41
10
208
146
30
246
129
38
197
18
114
259
122
121
102
47
124
63
111
133
87
210
123
39
207
58
54
90
98
62
85
109
214
179
128
71
201
24
132
51
216
168
231
127
48
215
161
141
64
11
21
167
162
60
249
15
245
226
55
152
92
86
42
70
33
148
187
81
204
40
125
236
120
44
221
238
144
234
199
97
28
192
116
243
190
65
103
237
110
101
105
256
23
119
8
185
218
143
150
78
36
135
191
232
79
240
224
9
158
155
50
16
108
117
211
203
96
72
73
184
83
153
175
19
29
220
177
34
91
163
76
159
242
174
104
75
196
106
100
181
147
7
37
89
12
219
205
88
165
27
49
170
17
115
169
14
182
25
35
213
209
173
82
217
22
84
186
180
77
241
59
188
222
99
212
164
178
198
200

> <PUBCHEM_MMFF94_PARTIAL_CHARGES>
41
1 -0.36
10 0.08
11 -0.15
12 0.08
13 -0.15
14 -0.15
15 0.08
16 0.08
17 -0.15
18 -0.18
19 -0.15
2 -0.36
20 -0.18
21 -0.15
22 -0.14
23 0.08
24 0.54
25 -0.14
26 0.28
27 0.28
28 0.15
29 0.15
3 -0.53
30 0.15
31 0.15
32 0.15
33 0.15
34 0.15
35 0.15
36 0.15
37 0.15
38 0.15
39 0.45
4 -0.53
43 0.45
47 0.45
5 -0.53
6 -0.57
7 0.03
8 0.03
9 -0.15

> <PUBCHEM_EFFECTIVE_ROTOR_COUNT>
7

> <PUBCHEM_PHARMACOPHORE_FEATURES>
8
1 1 acceptor
1 2 acceptor
1 3 donor
1 4 donor
1 5 donor
1 6 acceptor
6 7 9 10 13 15 17 rings
6 8 11 12 14 16 19 rings

> <PUBCHEM_HEAVY_ATOM_COUNT>
27

> <PUBCHEM_ATOM_DEF_STEREO_COUNT>
0

> <PUBCHEM_ATOM_UDEF_STEREO_COUNT>
0

> <PUBCHEM_BOND_DEF_STEREO_COUNT>
3

> <PUBCHEM_BOND_UDEF_STEREO_COUNT>
0

> <PUBCHEM_ISOTOPIC_ATOM_COUNT>
0

> <PUBCHEM_COMPONENT_COUNT>
1

> <PUBCHEM_CACTVS_TAUTO_COUNT>
49

> <PUBCHEM_CONFORMER_ID>
005097E70000009D

> <PUBCHEM_MMFF94_ENERGY>
98.4568

> <PUBCHEM_FEATURE_SELFOVERLAP>
40.597

> <PUBCHEM_SHAPE_FINGERPRINT>
10 15 18334296470277374331
10369192 42 18272931601308045879
10625338 131 18338790105274916744
106641 1 18186804690893730827
11315181 36 18343018858262302585
11408170 108 13767920192428152513
11456790 92 18261384534582977120
125118 31 18409168801091888388
12539765 74 17917437509772870279
12925494 130 18265612263907631224
13167372 99 18410571778355854126
13248334 5 18052821347053566734
13668630 136 10303807683576653199
14251757 52 18408600353448141344
14251764 18 18187085053035860687
14849402 71 18340770437813003961
14933364 13 18410292505885262343
15183329 4 15339119039501317118
15419008 145 18115576047135110768
15690457 1 12468356868557219010
1577012 14 18271517663530204766
15840311 113 18334859416030423444
16126227 98 18342739637352508255
16989713 51 17130412692345166319
1754908 1 17095528400561125089
1768 4 18273501178337819899
17686467 74 18187645843448841875
18608769 82 18411983590030886283
19302320 297 18335421292374298444
19611394 137 18041855038037871635
20157964 124 18343302544625392534
2026 5 8214136361920290761
20281389 69 18333730204350458318
21095123 145 16917065595311920599
21130935 74 18041280942544947739
21585482 111 18263361395759640293
22224240 67 17313104142110990307
22956985 138 12903477498072353344
23559900 14 8934417607576741055
306946 40 17313656050811205285
33532 11 9151175350607077972
3711267 37 17989213637666725625
4073 2 18187367657405068618
465052 167 11386365929407287914
504843 32 17775280603815359239
5109719 28 18411147938885223915
5758199 1 18040153998269740979
59682541 35 18113060441612869171
636775 72 18267303133062686545
68570916 9 18337669827327270591
9953998 17 17968100803343304235
9962374 69 13912613796139146962

> <PUBCHEM_SHAPE_MULTIPOLES>
520.43
31.5
2.84
0.8
10.43
1.43
-0.18
15.34
-7.9
-2.34
0.5
0.76
-0.09
0.23

> <PUBCHEM_SHAPE_SELFOVERLAP>
1105.447

> <PUBCHEM_SHAPE_VOLUME>
289.8

> <PUBCHEM_COORDINATE_TYPE>
2
5
10

$$$$