127045209
  -OEChem-03242010103D

 48 51  0     0  0  0  0  0  0999 V2000
   -1.6581   -3.9997    1.0329 O   0  0  0  0  0  0  0  0  0  0  0  0
   -6.1633    3.0193   -0.2586 O   0  0  0  0  0  0  0  0  0  0  0  0
    3.2704   -0.9618   -0.3397 N   0  0  0  0  0  0  0  0  0  0  0  0
    1.9492    0.6883   -1.3733 N   0  0  0  0  0  0  0  0  0  0  0  0
    2.4036    3.0279   -1.0174 N   0  0  0  0  0  0  0  0  0  0  0  0
    3.7739    1.3772    0.0542 C   0  0  0  0  0  0  0  0  0  0  0  0
    2.4576   -2.1062   -0.3184 C   0  0  0  0  0  0  0  0  0  0  0  0
    2.9865    0.4087   -0.5620 C   0  0  0  0  0  0  0  0  0  0  0  0
    3.4332    2.7134   -0.2120 C   0  0  0  0  0  0  0  0  0  0  0  0
    0.3153   -3.1431    0.0966 C   0  0  0  0  0  0  0  0  0  0  0  0
    1.1234   -2.0063    0.0760 C   0  0  0  0  0  0  0  0  0  0  0  0
    2.9837   -3.3428   -0.6924 C   0  0  0  0  0  0  0  0  0  0  0  0
    4.8526    1.0601    0.8981 C   0  0  0  0  0  0  0  0  0  0  0  0
    0.8414   -4.3798   -0.2772 C   0  0  0  0  0  0  0  0  0  0  0  0
    2.1755   -4.4795   -0.6716 C   0  0  0  0  0  0  0  0  0  0  0  0
    4.1985    3.7110    0.3870 C   0  0  0  0  0  0  0  0  0  0  0  0
   -1.0761   -3.0388    0.5071 C   0  0  0  0  0  0  0  0  0  0  0  0
    5.6004    2.0770    1.4833 C   0  0  0  0  0  0  0  0  0  0  0  0
    5.2728    3.4038    1.2273 C   0  0  0  0  0  0  0  0  0  0  0  0
   -3.9017   -0.4049    0.3653 C   0  0  0  0  0  0  0  0  0  0  0  0
   -1.8069   -1.7506    0.2520 C   0  0  0  0  0  0  0  0  0  0  0  0
   -3.0986   -1.6200    0.5887 C   0  0  0  0  0  0  0  0  0  0  0  0
    1.7176    1.9984   -1.5543 C   0  0  0  0  0  0  0  0  0  0  0  0
   -3.2690    0.8224    0.1668 C   0  0  0  0  0  0  0  0  0  0  0  0
   -5.2944   -0.4815    0.3536 C   0  0  0  0  0  0  0  0  0  0  0  0
   -5.4218    1.8963   -0.0547 C   0  0  0  0  0  0  0  0  0  0  0  0
   -4.0290    1.9729   -0.0431 C   0  0  0  0  0  0  0  0  0  0  0  0
   -6.0545    0.6691    0.1438 C   0  0  0  0  0  0  0  0  0  0  0  0
   -7.5822    2.8692   -0.2581 C   0  0  0  0  0  0  0  0  0  0  0  0
    4.2619   -1.1750   -0.4074 H   0  0  0  0  0  0  0  0  0  0  0  0
    0.7463   -1.0457    0.4149 H   0  0  0  0  0  0  0  0  0  0  0  0
    4.0213   -3.4348   -1.0031 H   0  0  0  0  0  0  0  0  0  0  0  0
    5.1296    0.0344    1.1251 H   0  0  0  0  0  0  0  0  0  0  0  0
    0.2266   -5.2761   -0.2719 H   0  0  0  0  0  0  0  0  0  0  0  0
    2.5849   -5.4421   -0.9638 H   0  0  0  0  0  0  0  0  0  0  0  0
    3.9628    4.7575    0.2029 H   0  0  0  0  0  0  0  0  0  0  0  0
    6.4331    1.8365    2.1372 H   0  0  0  0  0  0  0  0  0  0  0  0
    5.8511    4.2037    1.6805 H   0  0  0  0  0  0  0  0  0  0  0  0
   -1.2791   -0.9653   -0.2736 H   0  0  0  0  0  0  0  0  0  0  0  0
   -3.6263   -2.4417    1.0669 H   0  0  0  0  0  0  0  0  0  0  0  0
    0.8888    2.2583   -2.2015 H   0  0  0  0  0  0  0  0  0  0  0  0
   -2.1890    0.9346    0.1891 H   0  0  0  0  0  0  0  0  0  0  0  0
   -5.8034   -1.4304    0.5056 H   0  0  0  0  0  0  0  0  0  0  0  0
   -3.5312    2.9273   -0.1923 H   0  0  0  0  0  0  0  0  0  0  0  0
   -7.1312    0.5383    0.1470 H   0  0  0  0  0  0  0  0  0  0  0  0
   -8.0121    3.8606   -0.4345 H   0  0  0  0  0  0  0  0  0  0  0  0
   -7.9506    2.5298    0.7160 H   0  0  0  0  0  0  0  0  0  0  0  0
   -7.9190    2.2244   -1.0770 H   0  0  0  0  0  0  0  0  0  0  0  0
  1 17  2  0  0  0  0
  2 26  1  0  0  0  0
  2 29  1  0  0  0  0
  3  7  1  0  0  0  0
  3  8  1  0  0  0  0
  3 30  1  0  0  0  0
  4  8  2  0  0  0  0
  4 23  1  0  0  0  0
  5  9  1  0  0  0  0
  5 23  2  0  0  0  0
  6  8  1  0  0  0  0
  6  9  1  0  0  0  0
  6 13  2  0  0  0  0
  7 11  1  0  0  0  0
  7 12  2  0  0  0  0
  9 16  2  0  0  0  0
 10 11  2  0  0  0  0
 10 14  1  0  0  0  0
 10 17  1  0  0  0  0
 11 31  1  0  0  0  0
 12 15  1  0  0  0  0
 12 32  1  0  0  0  0
 13 18  1  0  0  0  0
 13 33  1  0  0  0  0
 14 15  2  0  0  0  0
 14 34  1  0  0  0  0
 15 35  1  0  0  0  0
 16 19  1  0  0  0  0
 16 36  1  0  0  0  0
 17 21  1  0  0  0  0
 18 19  2  0  0  0  0
 18 37  1  0  0  0  0
 19 38  1  0  0  0  0
 20 22  1  0  0  0  0
 20 24  2  0  0  0  0
 20 25  1  0  0  0  0
 21 22  2  0  0  0  0
 21 39  1  0  0  0  0
 22 40  1  0  0  0  0
 23 41  1  0  0  0  0
 24 27  1  0  0  0  0
 24 42  1  0  0  0  0
 25 28  2  0  0  0  0
 25 43  1  0  0  0  0
 26 27  2  0  0  0  0
 26 28  1  0  0  0  0
 27 44  1  0  0  0  0
 28 45  1  0  0  0  0
 29 46  1  0  0  0  0
 29 47  1  0  0  0  0
 29 48  1  0  0  0  0
M  END
> <PUBCHEM_COMPOUND_CID>
127045209

> <PUBCHEM_CONFORMER_RMSD>
1

> <PUBCHEM_CONFORMER_DIVERSEORDER>
1
68
79
126
44
69
103
116
8
99
52
120
57
81
73
89
105
18
107
75
59
55
65
82
117
132
128
7
10
124
129
93
136
43
83
25
40
3
49
77
36
113
14
94
4
104
122
86
39
63
90
45
108
31
97
101
33
70
51
119
109
19
76
13
50
88
112
96
24
26
54
130
111
16
22
12
38
27
127
118
102
21
84
41
53
6
91
28
114
34
2
15
17
74
131
106
11
61
23
95
92
80
58
47
56
20
85
29
5
115
98
35
134
133
67
135
125
121
30
37
9
60
71
64
42
100
78
48
87
62
32
110
46
66
72
123

> <PUBCHEM_MMFF94_PARTIAL_CHARGES>
44
1 -0.57
10 0.09
11 -0.15
12 -0.15
13 -0.15
14 -0.15
15 -0.15
16 -0.15
17 0.47
18 -0.15
19 -0.15
2 -0.36
20 0.03
21 -0.14
22 -0.18
23 0.47
24 -0.15
25 -0.15
26 0.08
27 -0.15
28 -0.15
29 0.28
3 -0.6
30 0.4
31 0.15
32 0.15
33 0.15
34 0.15
35 0.15
36 0.15
37 0.15
38 0.15
39 0.15
4 -0.62
40 0.15
41 0.15
42 0.15
43 0.15
44 0.15
45 0.15
5 -0.62
7 0.1
8 0.41
9 0.31

> <PUBCHEM_EFFECTIVE_ROTOR_COUNT>
6

> <PUBCHEM_PHARMACOPHORE_FEATURES>
9
1 1 acceptor
1 2 acceptor
1 3 donor
3 3 4 8 cation
3 4 5 23 cation
6 20 24 25 26 27 28 rings
6 4 5 6 8 9 23 rings
6 6 9 13 16 18 19 rings
6 7 10 11 12 14 15 rings

> <PUBCHEM_HEAVY_ATOM_COUNT>
29

> <PUBCHEM_ATOM_DEF_STEREO_COUNT>
0

> <PUBCHEM_ATOM_UDEF_STEREO_COUNT>
0

> <PUBCHEM_BOND_DEF_STEREO_COUNT>
1

> <PUBCHEM_BOND_UDEF_STEREO_COUNT>
0

> <PUBCHEM_ISOTOPIC_ATOM_COUNT>
0

> <PUBCHEM_COMPONENT_COUNT>
1

> <PUBCHEM_CACTVS_TAUTO_COUNT>
9

> <PUBCHEM_CONFORMER_ID>
07928E5900000001

> <PUBCHEM_MMFF94_ENERGY>
116.4323

> <PUBCHEM_FEATURE_SELFOVERLAP>
45.844

> <PUBCHEM_SHAPE_FINGERPRINT>
10439779 11 18337665429502143120
10673678 19 18342742867494663819
10675989 125 18341051792208734513
11059845 2 18194947764388119400
12107183 9 18336250350232913490
12422481 6 18187637046722752360
12925494 130 18118690920774802049
12978246 48 18047480207343138504
13944108 23 18191036603379064076
13965767 371 18113890581228716358
14223995 32 18411419548891943016
14294032 229 17912653702348002251
14725015 67 17752762433588663083
15003188 8 18335135435913520588
15320295 44 18201425958139660343
15320467 1 18410295783309871205
15400415 2 18339361988813476497
15420108 30 18340190999633152974
16988056 13 18196378013718968550
17818456 19 17832422378039863988
19053607 189 18334299790013183989
19246450 95 18267006415109068418
1979834 28 18261403251491608205
20238998 120 17980764840448985590
20715895 44 18410290298293002729
21049683 118 17386290887947384891
21133410 127 18041001725940729445
21860390 5 18198071269904702183
229767 44 18189607405529549064
23522609 53 17488470685866214921
23559900 14 18193839245955375731
23569914 2 17172044415967344421
24204213 92 17414165612372433094
3117164 225 18335974385604375762
376196 1 18411139147029822338
508180 173 18049467871211526542
5109719 28 18335990770936031401
513532 50 18271817765558337766
6036956 94 17758114087795029333
6176135 31 18335421287842395857
6371009 1 18049431836403803655
6371380 46 18411989074798867662
6523845 18 17907622251186673010
653340 110 17835798977848136152
9849439 229 18335989773670460869
99344 41 18410006625158654173
9961470 85 18410854356416616435
9981440 41 18265336277672603235

> <PUBCHEM_SHAPE_MULTIPOLES>
570.12
15.48
6.78
1.06
21.69
4.67
-0.05
-20.92
2.57
-4.37
-0.09
-1.09
-0.37
2.47

> <PUBCHEM_SHAPE_SELFOVERLAP>
1256.904

> <PUBCHEM_SHAPE_VOLUME>
303.1

> <PUBCHEM_COORDINATE_TYPE>
2
5
10

$$$$