137662036
  -OEChem-03242010103D

 41 44  0     0  0  0  0  0  0999 V2000
   -4.0107   -1.7331    1.6113 O   0  0  0  0  0  0  0  0  0  0  0  0
   -1.3128    1.4963   -0.7206 N   0  0  0  0  0  0  0  0  0  0  0  0
    0.3615   -0.1388   -0.4769 N   0  0  0  0  0  0  0  0  0  0  0  0
    2.5982    0.4794    0.1727 N   0  0  0  0  0  0  0  0  0  0  0  0
    3.3366   -2.0216    0.0748 N   0  0  0  0  0  0  0  0  0  0  0  0
    0.9205    2.1765   -0.0657 C   0  0  0  0  0  0  0  0  0  0  0  0
    0.0299    1.1644   -0.4125 C   0  0  0  0  0  0  0  0  0  0  0  0
    2.2333    1.7724    0.2272 C   0  0  0  0  0  0  0  0  0  0  0  0
   -2.5196    0.7940   -0.5744 C   0  0  0  0  0  0  0  0  0  0  0  0
    0.5503    3.5313   -0.0055 C   0  0  0  0  0  0  0  0  0  0  0  0
    1.6426   -0.4058   -0.1764 C   0  0  0  0  0  0  0  0  0  0  0  0
    3.1534    2.7572    0.5785 C   0  0  0  0  0  0  0  0  0  0  0  0
    1.4901    4.4942    0.3485 C   0  0  0  0  0  0  0  0  0  0  0  0
   -2.6672   -0.1320    0.4583 C   0  0  0  0  0  0  0  0  0  0  0  0
    2.7930    4.1064    0.6407 C   0  0  0  0  0  0  0  0  0  0  0  0
    2.0410   -1.7880   -0.2328 C   0  0  0  0  0  0  0  0  0  0  0  0
   -3.5712    1.0223   -1.4621 C   0  0  0  0  0  0  0  0  0  0  0  0
   -3.8664   -0.8296    0.6036 C   0  0  0  0  0  0  0  0  0  0  0  0
   -4.7703    0.3246   -1.3169 C   0  0  0  0  0  0  0  0  0  0  0  0
   -4.9181   -0.6012   -0.2840 C   0  0  0  0  0  0  0  0  0  0  0  0
    1.1358   -2.7776   -0.5809 C   0  0  0  0  0  0  0  0  0  0  0  0
    1.5894   -4.0915   -0.6152 C   0  0  0  0  0  0  0  0  0  0  0  0
    3.7412   -3.3108    0.0306 C   0  0  0  0  0  0  0  0  0  0  0  0
    2.9156   -4.3717   -0.3049 C   0  0  0  0  0  0  0  0  0  0  0  0
   -2.8958   -1.9174    2.4825 C   0  0  0  0  0  0  0  0  0  0  0  0
   -1.3885    2.3001   -1.3381 H   0  0  0  0  0  0  0  0  0  0  0  0
   -0.4606    3.8665   -0.2197 H   0  0  0  0  0  0  0  0  0  0  0  0
    4.1796    2.4798    0.8121 H   0  0  0  0  0  0  0  0  0  0  0  0
    1.2079    5.5414    0.3981 H   0  0  0  0  0  0  0  0  0  0  0  0
   -1.8316   -0.2655    1.1365 H   0  0  0  0  0  0  0  0  0  0  0  0
    3.5327    4.8518    0.9183 H   0  0  0  0  0  0  0  0  0  0  0  0
   -3.4696    1.7404   -2.2718 H   0  0  0  0  0  0  0  0  0  0  0  0
   -5.5891    0.5021   -2.0081 H   0  0  0  0  0  0  0  0  0  0  0  0
   -5.8545   -1.1416   -0.1760 H   0  0  0  0  0  0  0  0  0  0  0  0
    0.0978   -2.5762   -0.8247 H   0  0  0  0  0  0  0  0  0  0  0  0
    0.9109   -4.8960   -0.8828 H   0  0  0  0  0  0  0  0  0  0  0  0
    4.7840   -3.4760    0.2807 H   0  0  0  0  0  0  0  0  0  0  0  0
    3.2909   -5.3884   -0.3250 H   0  0  0  0  0  0  0  0  0  0  0  0
   -3.1841   -2.6740    3.2196 H   0  0  0  0  0  0  0  0  0  0  0  0
   -2.6638   -1.0028    3.0388 H   0  0  0  0  0  0  0  0  0  0  0  0
   -2.0254   -2.3108    1.9460 H   0  0  0  0  0  0  0  0  0  0  0  0
  1 18  1  0  0  0  0
  1 25  1  0  0  0  0
  2  7  1  0  0  0  0
  2  9  1  0  0  0  0
  2 26  1  0  0  0  0
  3  7  2  0  0  0  0
  3 11  1  0  0  0  0
  4  8  1  0  0  0  0
  4 11  2  0  0  0  0
  5 16  1  0  0  0  0
  5 23  2  0  0  0  0
  6  7  1  0  0  0  0
  6  8  1  0  0  0  0
  6 10  2  0  0  0  0
  8 12  2  0  0  0  0
  9 14  2  0  0  0  0
  9 17  1  0  0  0  0
 10 13  1  0  0  0  0
 10 27  1  0  0  0  0
 11 16  1  0  0  0  0
 12 15  1  0  0  0  0
 12 28  1  0  0  0  0
 13 15  2  0  0  0  0
 13 29  1  0  0  0  0
 14 18  1  0  0  0  0
 14 30  1  0  0  0  0
 15 31  1  0  0  0  0
 16 21  2  0  0  0  0
 17 19  2  0  0  0  0
 17 32  1  0  0  0  0
 18 20  2  0  0  0  0
 19 20  1  0  0  0  0
 19 33  1  0  0  0  0
 20 34  1  0  0  0  0
 21 22  1  0  0  0  0
 21 35  1  0  0  0  0
 22 24  2  0  0  0  0
 22 36  1  0  0  0  0
 23 24  1  0  0  0  0
 23 37  1  0  0  0  0
 24 38  1  0  0  0  0
 25 39  1  0  0  0  0
 25 40  1  0  0  0  0
 25 41  1  0  0  0  0
M  END
> <PUBCHEM_COMPOUND_CID>
137662036

> <PUBCHEM_CONFORMER_RMSD>
0.8

> <PUBCHEM_CONFORMER_DIVERSEORDER>
1
49
37
38
23
25
19
54
12
56
3
16
46
51
8
30
11
27
33
28
31
22
9
29
26
14
2
55
52
41
17
45
24
15
21
39
44
7
10
43
42
5
36
13
6
53
34
35
20
50
18
40
47
32
4
48

> <PUBCHEM_MMFF94_PARTIAL_CHARGES>
37
1 -0.36
10 -0.15
11 0.62
12 -0.15
13 -0.15
14 -0.15
15 -0.15
16 0.31
17 -0.15
18 0.08
19 -0.15
2 -0.6
20 -0.15
21 -0.15
22 -0.15
23 0.16
24 -0.15
25 0.28
26 0.4
27 0.15
28 0.15
29 0.15
3 -0.62
30 0.15
31 0.15
32 0.15
33 0.15
34 0.15
35 0.15
36 0.15
37 0.15
38 0.15
4 -0.62
5 -0.62
7 0.41
8 0.31
9 0.1

> <PUBCHEM_EFFECTIVE_ROTOR_COUNT>
4

> <PUBCHEM_PHARMACOPHORE_FEATURES>
9
1 1 acceptor
1 2 donor
1 5 acceptor
3 2 3 7 cation
3 3 4 11 cation
6 3 4 6 7 8 11 rings
6 5 16 21 22 23 24 rings
6 6 8 10 12 13 15 rings
6 9 14 17 18 19 20 rings

> <PUBCHEM_HEAVY_ATOM_COUNT>
25

> <PUBCHEM_ATOM_DEF_STEREO_COUNT>
0

> <PUBCHEM_ATOM_UDEF_STEREO_COUNT>
0

> <PUBCHEM_BOND_DEF_STEREO_COUNT>
0

> <PUBCHEM_BOND_UDEF_STEREO_COUNT>
0

> <PUBCHEM_ISOTOPIC_ATOM_COUNT>
0

> <PUBCHEM_COMPONENT_COUNT>
1

> <PUBCHEM_CACTVS_TAUTO_COUNT>
-1

> <PUBCHEM_CONFORMER_ID>
08348E5400000001

> <PUBCHEM_MMFF94_ENERGY>
98.6488

> <PUBCHEM_FEATURE_SELFOVERLAP>
45.844

> <PUBCHEM_SHAPE_FINGERPRINT>
10411042 1 18124588682932075958
1100329 8 18269267040790148764
114674 6 18260831509729738571
11582403 64 16887729567697781141
12107183 9 18056204562508218817
12363563 72 18196375810195030423
12553582 1 18052271604155046542
12788726 201 17471572131489607611
13140716 1 18053655060587540704
13533116 47 18410860962978293617
138480 1 18340199687792089708
140371 6 17835234550547433964
14363568 33 18267044867181356030
14659021 117 17616245884747977666
14790565 3 18122061176752399812
14844126 61 17256527414120263730
14866123 147 17691401232917394328
14955137 171 18410566289493223112
15042514 8 17404863648788940644
15351339 4 17177701257093674273
15927050 60 18052532472843814284
19591789 44 18266743678631343364
1979834 28 17468513707428488835
20028762 73 17985257728005310214
20101258 96 17982455893262637510
20645477 70 18336532889796965165
20693207 138 18114462275777536439
20832881 197 18120090577332546989
21033648 29 17910100645075625217
21120745 212 17838635366040314500
21133410 171 16746723506917985191
21133410 32 16519674544259330858
21796203 349 18195557855190749778
23558518 356 17256534019922759694
23559900 14 18337660941445668493
3091708 16 9143378756683423108
3178227 256 18338245980558461152
3421961 26 18340481179853834357
3886686 26 17119405592866213176
4015057 19 18338782426468918733
4403749 210 17688575483112048761
5309563 4 18268988683274516622
563151 74 18198925767297228929
613672 6 18122608471170257879
6442390 28 17906457984326334812
6669772 16 18198912594696160172
6679774 75 18043514201290024610
7399639 24 17975425916763036379
9709674 26 18334289882002893759
9777508 108 17261021646318745664

> <PUBCHEM_SHAPE_MULTIPOLES>
488.69
8.27
6.41
1.25
9.69
0.3
-0.6
-3.42
-0.13
-10.03
-0.43
1.76
-0.54
2.37

> <PUBCHEM_SHAPE_SELFOVERLAP>
1088.814

> <PUBCHEM_SHAPE_VOLUME>
258

> <PUBCHEM_COORDINATE_TYPE>
2
5
10

$$$$