56945300
  -OEChem-03242010093D

 41 43  0     0  0  0  0  0  0999 V2000
    1.4834    2.2348   -0.3905 O   0  0  0  0  0  0  0  0  0  0  0  0
    5.3135   -2.2399   -0.7354 O   0  0  0  0  0  0  0  0  0  0  0  0
    6.4041    2.1875    0.7288 O   0  0  0  0  0  0  0  0  0  0  0  0
    7.2031   -0.3787    0.0640 O   0  0  0  0  0  0  0  0  0  0  0  0
   -0.4634   -3.0879   -0.5746 O   0  5  0  0  0  0  0  0  0  0  0  0
   -0.4379   -2.6915    1.5843 O   0  0  0  0  0  0  0  0  0  0  0  0
    0.8507   -0.0019   -0.0398 N   0  0  0  0  0  0  0  0  0  0  0  0
   -0.7090   -2.3515    0.4091 N   0  3  0  0  0  0  0  0  0  0  0  0
   -3.3305    0.2330   -0.0340 C   0  0  0  0  0  0  0  0  0  0  0  0
   -0.5464    0.0571   -0.0352 C   0  0  0  0  0  0  0  0  0  0  0  0
   -1.3172   -1.0845    0.1836 C   0  0  0  0  0  0  0  0  0  0  0  0
   -2.7093   -0.9966    0.1842 C   0  0  0  0  0  0  0  0  0  0  0  0
   -4.7745    0.3248   -0.0347 C   0  0  0  0  0  0  0  0  0  0  0  0
   -2.5597    1.3748   -0.2528 C   0  0  0  0  0  0  0  0  0  0  0  0
   -1.1676    1.2869   -0.2533 C   0  0  0  0  0  0  0  0  0  0  0  0
    3.1909    0.6752   -0.1373 C   0  0  0  0  0  0  0  0  0  0  0  0
    1.7548    1.0524   -0.2111 C   0  0  0  0  0  0  0  0  0  0  0  0
   -5.4568    0.5876    1.1531 C   0  0  0  0  0  0  0  0  0  0  0  0
   -5.4840    0.1505   -1.2227 C   0  0  0  0  0  0  0  0  0  0  0  0
    4.1396    1.6149    0.2659 C   0  0  0  0  0  0  0  0  0  0  0  0
    3.5897   -0.6187   -0.4727 C   0  0  0  0  0  0  0  0  0  0  0  0
    4.9371   -0.9729   -0.4051 C   0  0  0  0  0  0  0  0  0  0  0  0
    5.4871    1.2606    0.3336 C   0  0  0  0  0  0  0  0  0  0  0  0
    5.8858   -0.0333   -0.0018 C   0  0  0  0  0  0  0  0  0  0  0  0
   -6.8490    0.6762    1.1528 C   0  0  0  0  0  0  0  0  0  0  0  0
   -6.8760    0.2392   -1.2231 C   0  0  0  0  0  0  0  0  0  0  0  0
   -7.5585    0.5020   -0.0353 C   0  0  0  0  0  0  0  0  0  0  0  0
   -3.3096   -1.8888    0.3550 H   0  0  0  0  0  0  0  0  0  0  0  0
   -3.0295    2.3403   -0.4259 H   0  0  0  0  0  0  0  0  0  0  0  0
   -0.6517    2.2175   -0.4372 H   0  0  0  0  0  0  0  0  0  0  0  0
    1.2320   -0.9204    0.1615 H   0  0  0  0  0  0  0  0  0  0  0  0
   -4.9191    0.7261    2.0882 H   0  0  0  0  0  0  0  0  0  0  0  0
   -4.9677   -0.0551   -2.1575 H   0  0  0  0  0  0  0  0  0  0  0  0
    3.8353    2.6239    0.5338 H   0  0  0  0  0  0  0  0  0  0  0  0
    2.8821   -1.3619   -0.8289 H   0  0  0  0  0  0  0  0  0  0  0  0
   -7.3804    0.8809    2.0776 H   0  0  0  0  0  0  0  0  0  0  0  0
   -7.4287    0.1035   -2.1482 H   0  0  0  0  0  0  0  0  0  0  0  0
   -8.6424    0.5709   -0.0356 H   0  0  0  0  0  0  0  0  0  0  0  0
    4.5255   -2.7517   -0.9863 H   0  0  0  0  0  0  0  0  0  0  0  0
    5.9475    3.0247    0.9199 H   0  0  0  0  0  0  0  0  0  0  0  0
    7.2898   -1.3102   -0.2034 H   0  0  0  0  0  0  0  0  0  0  0  0
  1 17  2  0  0  0  0
  2 22  1  0  0  0  0
  2 39  1  0  0  0  0
  3 23  1  0  0  0  0
  3 40  1  0  0  0  0
  4 24  1  0  0  0  0
  4 41  1  0  0  0  0
  5  8  1  0  0  0  0
  6  8  2  0  0  0  0
  7 10  1  0  0  0  0
  7 17  1  0  0  0  0
  7 31  1  0  0  0  0
  8 11  1  0  0  0  0
  9 12  2  0  0  0  0
  9 13  1  0  0  0  0
  9 14  1  0  0  0  0
 10 11  2  0  0  0  0
 10 15  1  0  0  0  0
 11 12  1  0  0  0  0
 12 28  1  0  0  0  0
 13 18  2  0  0  0  0
 13 19  1  0  0  0  0
 14 15  2  0  0  0  0
 14 29  1  0  0  0  0
 15 30  1  0  0  0  0
 16 17  1  0  0  0  0
 16 20  2  0  0  0  0
 16 21  1  0  0  0  0
 18 25  1  0  0  0  0
 18 32  1  0  0  0  0
 19 26  2  0  0  0  0
 19 33  1  0  0  0  0
 20 23  1  0  0  0  0
 20 34  1  0  0  0  0
 21 22  2  0  0  0  0
 21 35  1  0  0  0  0
 22 24  1  0  0  0  0
 23 24  2  0  0  0  0
 25 27  2  0  0  0  0
 25 36  1  0  0  0  0
 26 27  1  0  0  0  0
 26 37  1  0  0  0  0
 27 38  1  0  0  0  0
M  CHG  2   5  -1   8   1
M  END
> <PUBCHEM_COMPOUND_CID>
56945300

> <PUBCHEM_CONFORMER_RMSD>
0.8

> <PUBCHEM_CONFORMER_DIVERSEORDER>
1
5
4
7
3
9
6
8
2

> <PUBCHEM_MMFF94_PARTIAL_CHARGES>
39
1 -0.57
10 0.12
11 0.13
12 -0.15
14 -0.15
15 -0.15
16 0.09
17 0.54
18 -0.15
19 -0.15
2 -0.53
20 -0.15
21 -0.15
22 0.08
23 0.08
24 0.08
25 -0.15
26 -0.15
27 -0.15
28 0.15
29 0.15
3 -0.53
30 0.15
31 0.37
32 0.15
33 0.15
34 0.15
35 0.15
36 0.15
37 0.15
38 0.15
39 0.45
4 -0.53
40 0.45
41 0.45
5 -0.52
6 -0.52
7 -0.55
8 0.91

> <PUBCHEM_EFFECTIVE_ROTOR_COUNT>
5

> <PUBCHEM_PHARMACOPHORE_FEATURES>
11
1 1 acceptor
1 2 donor
1 3 donor
1 4 donor
1 5 acceptor
1 5 anion
1 6 acceptor
1 7 donor
6 13 18 19 25 26 27 rings
6 16 20 21 22 23 24 rings
6 9 10 11 12 14 15 rings

> <PUBCHEM_HEAVY_ATOM_COUNT>
27

> <PUBCHEM_ATOM_DEF_STEREO_COUNT>
0

> <PUBCHEM_ATOM_UDEF_STEREO_COUNT>
0

> <PUBCHEM_BOND_DEF_STEREO_COUNT>
0

> <PUBCHEM_BOND_UDEF_STEREO_COUNT>
0

> <PUBCHEM_ISOTOPIC_ATOM_COUNT>
0

> <PUBCHEM_COMPONENT_COUNT>
1

> <PUBCHEM_CACTVS_TAUTO_COUNT>
25

> <PUBCHEM_CONFORMER_ID>
0364EA9400000001

> <PUBCHEM_MMFF94_ENERGY>
95.4625

> <PUBCHEM_FEATURE_SELFOVERLAP>
55.912

> <PUBCHEM_SHAPE_FINGERPRINT>
10 15 17894908572855454400
10299344 5 17704353268822000189
10835480 77 18270114751202048528
10906281 52 18199486487471981084
11315181 36 17632576076947464473
11524674 6 16515689961648870953
11578080 2 17201622584001706170
12107698 1 16917348134443618921
12236239 1 17917992768088209797
12838862 33 18335403682833947576
13402501 40 18410013221790096830
13533116 47 18059857234244584554
1361 2 18059859415767030230
14251764 18 17988925578146154304
14617045 38 18335989701357558574
14849402 71 18059576944521573681
14856354 85 14779273021033644729
15183329 4 18341894082254679042
15849732 13 17530685419972939740
15927050 60 18187361051888097899
19141452 34 18410856607248537358
20157964 124 18202284693362491790
20567600 254 18113333103295654079
21033648 29 17987787653164028128
21130935 74 18201721755893344255
21236236 1 18338234990032809267
21267235 1 18409454648619496044
21403212 168 18334008380955763971
21521721 280 18342178873310119963
21781051 124 17750541575036376763
21859007 373 17604409843463789236
22224240 67 18334015004259454251
23536379 177 17131835352631468773
23559900 14 18270392931495731528
23569917 315 18410299150939096087
23569943 247 18125162636755856875
249057 3 18334016121003984516
3004659 81 18333450937641019924
3178227 256 18261122876474762513
335352 9 18409168826877217916
340366 18 17677057948270189460
3633792 109 18343301431368727553
38695281 34 18343302544461953439
397830 11 17314524822940448073
404807 14 16193151287314965591
4073 2 18335985384556801626
4340502 62 16081084870317828457
5104073 3 18264487454700747920
5385378 56 18261959540151148699
5758199 1 18342461439614822537
59755656 215 18186801340354918799
59755656 520 18412257363861976199
6138700 20 18335984185970613063
6669772 16 18410293575728570295

> <PUBCHEM_SHAPE_MULTIPOLES>
510.47
20.06
2.24
0.97
2.53
1.36
0.08
-4.87
-0.02
-2.31
0.24
1.17
0.14
0.63

> <PUBCHEM_SHAPE_SELFOVERLAP>
1126.263

> <PUBCHEM_SHAPE_VOLUME>
273.1

> <PUBCHEM_COORDINATE_TYPE>
2
5
10

$$$$