137643183
  -OEChem-03242010103D

 75 79  0     1  0  0  0  0  0999 V2000
    3.1332   -3.9992    2.0001 Br  0  0  0  0  0  0  0  0  0  0  0  0
   -4.2030   -2.1495   -1.0852 O   0  0  0  0  0  0  0  0  0  0  0  0
    0.5274    0.2761   -2.1086 O   0  0  0  0  0  0  0  0  0  0  0  0
   -3.6928    0.2818    2.1776 O   0  0  0  0  0  0  0  0  0  0  0  0
   -1.0268    0.1670   -3.8210 O   0  0  0  0  0  0  0  0  0  0  0  0
   -1.6569    1.1749    2.8231 O   0  0  0  0  0  0  0  0  0  0  0  0
   -2.7966    3.0829   -1.0567 N   0  0  0  0  0  0  0  0  0  0  0  0
   -3.1576   -2.9222   -0.5945 N   0  0  0  0  0  0  0  0  0  0  0  0
    4.6320   -0.3356   -1.1071 N   0  0  0  0  0  0  0  0  0  0  0  0
    3.1137   -1.7801   -1.5928 N   0  0  0  0  0  0  0  0  0  0  0  0
    4.2725   -1.6216   -0.9628 N   0  0  0  0  0  0  0  0  0  0  0  0
   -1.7760    0.5239   -0.3954 C   0  0  1  0  0  0  0  0  0  0  0  0
   -1.5412    1.2004   -1.7509 C   0  0  0  0  0  0  0  0  0  0  0  0
   -2.4760    1.4386    0.6147 C   0  0  0  0  0  0  0  0  0  0  0  0
   -2.5649   -0.7233   -0.5816 C   0  0  0  0  0  0  0  0  0  0  0  0
   -2.0609    2.4185   -2.0254 C   0  0  0  0  0  0  0  0  0  0  0  0
   -2.9713    2.6412    0.2447 C   0  0  0  0  0  0  0  0  0  0  0  0
   -2.1905   -2.0486   -0.3003 C   0  0  0  0  0  0  0  0  0  0  0  0
   -3.8382   -0.8419   -1.0727 C   0  0  0  0  0  0  0  0  0  0  0  0
   -0.6722    0.4876   -2.7017 C   0  0  0  0  0  0  0  0  0  0  0  0
   -2.5339    0.9625    2.0064 C   0  0  0  0  0  0  0  0  0  0  0  0
   -1.9230    3.1518   -3.3323 C   0  0  0  0  0  0  0  0  0  0  0  0
   -3.7186    3.5900    1.1426 C   0  0  0  0  0  0  0  0  0  0  0  0
   -0.9377   -2.5067    0.2406 C   0  0  0  0  0  0  0  0  0  0  0  0
   -4.8358    0.1181   -1.5633 C   0  0  0  0  0  0  0  0  0  0  0  0
   -0.1480   -3.3971   -0.4869 C   0  0  0  0  0  0  0  0  0  0  0  0
   -0.5139   -2.0615    1.4929 C   0  0  0  0  0  0  0  0  0  0  0  0
    1.4894   -0.4133   -2.9137 C   0  0  0  0  0  0  0  0  0  0  0  0
   -3.8968   -0.2487    3.4912 C   0  0  0  0  0  0  0  0  0  0  0  0
    2.7591   -0.5739   -2.1302 C   0  0  0  0  0  0  0  0  0  0  0  0
    1.0655   -3.8421    0.0376 C   0  0  0  0  0  0  0  0  0  0  0  0
    0.6993   -2.5065    2.0174 C   0  0  0  0  0  0  0  0  0  0  0  0
    5.8597    0.1543   -0.5340 C   0  0  0  0  0  0  0  0  0  0  0  0
    1.4891   -3.3967    1.2897 C   0  0  0  0  0  0  0  0  0  0  0  0
    3.7159    0.3632   -1.8315 C   0  0  0  0  0  0  0  0  0  0  0  0
    5.7584    0.4434    0.9692 C   0  0  0  0  0  0  0  0  0  0  0  0
   -5.2234   -0.9771    3.5283 C   0  0  0  0  0  0  0  0  0  0  0  0
    4.6578    1.4145    1.3209 C   0  0  0  0  0  0  0  0  0  0  0  0
    4.9207    2.7838    1.3581 C   0  0  0  0  0  0  0  0  0  0  0  0
    3.3773    0.9422    1.6083 C   0  0  0  0  0  0  0  0  0  0  0  0
    3.9030    3.6809    1.6826 C   0  0  0  0  0  0  0  0  0  0  0  0
    2.3595    1.8392    1.9327 C   0  0  0  0  0  0  0  0  0  0  0  0
    2.6225    3.2086    1.9699 C   0  0  0  0  0  0  0  0  0  0  0  0
   -0.7889    0.3033    0.0293 H   0  0  0  0  0  0  0  0  0  0  0  0
   -3.1819    3.9887   -1.2998 H   0  0  0  0  0  0  0  0  0  0  0  0
   -2.8928    3.2030   -3.8383 H   0  0  0  0  0  0  0  0  0  0  0  0
   -1.2083    2.6901   -4.0177 H   0  0  0  0  0  0  0  0  0  0  0  0
   -1.5740    4.1754   -3.1555 H   0  0  0  0  0  0  0  0  0  0  0  0
   -3.1849    4.5439    1.2122 H   0  0  0  0  0  0  0  0  0  0  0  0
   -3.8434    3.2071    2.1594 H   0  0  0  0  0  0  0  0  0  0  0  0
   -4.7186    3.7823    0.7391 H   0  0  0  0  0  0  0  0  0  0  0  0
   -5.7507   -0.3933   -1.8812 H   0  0  0  0  0  0  0  0  0  0  0  0
   -5.1169    0.8283   -0.7810 H   0  0  0  0  0  0  0  0  0  0  0  0
   -4.4582    0.6728   -2.4264 H   0  0  0  0  0  0  0  0  0  0  0  0
   -0.4589   -3.7511   -1.4670 H   0  0  0  0  0  0  0  0  0  0  0  0
   -1.1206   -1.3891    2.0885 H   0  0  0  0  0  0  0  0  0  0  0  0
    1.6906    0.1631   -3.8242 H   0  0  0  0  0  0  0  0  0  0  0  0
    1.0979   -1.3996   -3.1887 H   0  0  0  0  0  0  0  0  0  0  0  0
   -3.0863   -0.9443    3.7354 H   0  0  0  0  0  0  0  0  0  0  0  0
   -3.9039    0.5707    4.2186 H   0  0  0  0  0  0  0  0  0  0  0  0
    1.6700   -4.5341   -0.5430 H   0  0  0  0  0  0  0  0  0  0  0  0
    1.0132   -2.1528    2.9961 H   0  0  0  0  0  0  0  0  0  0  0  0
    6.1372    1.0646   -1.0790 H   0  0  0  0  0  0  0  0  0  0  0  0
    6.6383   -0.5926   -0.7262 H   0  0  0  0  0  0  0  0  0  0  0  0
    6.7199    0.8308    1.3292 H   0  0  0  0  0  0  0  0  0  0  0  0
    5.5943   -0.4944    1.5166 H   0  0  0  0  0  0  0  0  0  0  0  0
    3.8174    1.4145   -2.0608 H   0  0  0  0  0  0  0  0  0  0  0  0
   -6.0428   -0.2984    3.2694 H   0  0  0  0  0  0  0  0  0  0  0  0
   -5.2376   -1.7875    2.7919 H   0  0  0  0  0  0  0  0  0  0  0  0
   -5.4119   -1.3970    4.5202 H   0  0  0  0  0  0  0  0  0  0  0  0
    5.9138    3.1638    1.1338 H   0  0  0  0  0  0  0  0  0  0  0  0
    3.1582   -0.1219    1.5883 H   0  0  0  0  0  0  0  0  0  0  0  0
    4.1074    4.7472    1.7107 H   0  0  0  0  0  0  0  0  0  0  0  0
    1.3622    1.4709    2.1553 H   0  0  0  0  0  0  0  0  0  0  0  0
    1.8296    3.9068    2.2218 H   0  0  0  0  0  0  0  0  0  0  0  0
  1 34  1  0  0  0  0
  2  8  1  0  0  0  0
  2 19  1  0  0  0  0
  3 20  1  0  0  0  0
  3 28  1  0  0  0  0
  4 21  1  0  0  0  0
  4 29  1  0  0  0  0
  5 20  2  0  0  0  0
  6 21  2  0  0  0  0
  7 16  1  0  0  0  0
  7 17  1  0  0  0  0
  7 45  1  0  0  0  0
  8 18  2  0  0  0  0
  9 11  1  0  0  0  0
  9 33  1  0  0  0  0
  9 35  1  0  0  0  0
 10 11  2  0  0  0  0
 10 30  1  0  0  0  0
 12 13  1  0  0  0  0
 12 14  1  0  0  0  0
 12 15  1  0  0  0  0
 12 44  1  0  0  0  0
 13 16  2  0  0  0  0
 13 20  1  0  0  0  0
 14 17  2  0  0  0  0
 14 21  1  0  0  0  0
 15 18  1  0  0  0  0
 15 19  2  0  0  0  0
 16 22  1  0  0  0  0
 17 23  1  0  0  0  0
 18 24  1  0  0  0  0
 19 25  1  0  0  0  0
 22 46  1  0  0  0  0
 22 47  1  0  0  0  0
 22 48  1  0  0  0  0
 23 49  1  0  0  0  0
 23 50  1  0  0  0  0
 23 51  1  0  0  0  0
 24 26  2  0  0  0  0
 24 27  1  0  0  0  0
 25 52  1  0  0  0  0
 25 53  1  0  0  0  0
 25 54  1  0  0  0  0
 26 31  1  0  0  0  0
 26 55  1  0  0  0  0
 27 32  2  0  0  0  0
 27 56  1  0  0  0  0
 28 30  1  0  0  0  0
 28 57  1  0  0  0  0
 28 58  1  0  0  0  0
 29 37  1  0  0  0  0
 29 59  1  0  0  0  0
 29 60  1  0  0  0  0
 30 35  2  0  0  0  0
 31 34  2  0  0  0  0
 31 61  1  0  0  0  0
 32 34  1  0  0  0  0
 32 62  1  0  0  0  0
 33 36  1  0  0  0  0
 33 63  1  0  0  0  0
 33 64  1  0  0  0  0
 35 67  1  0  0  0  0
 36 38  1  0  0  0  0
 36 65  1  0  0  0  0
 36 66  1  0  0  0  0
 37 68  1  0  0  0  0
 37 69  1  0  0  0  0
 37 70  1  0  0  0  0
 38 39  2  0  0  0  0
 38 40  1  0  0  0  0
 39 41  1  0  0  0  0
 39 71  1  0  0  0  0
 40 42  2  0  0  0  0
 40 72  1  0  0  0  0
 41 43  2  0  0  0  0
 41 73  1  0  0  0  0
 42 43  1  0  0  0  0
 42 74  1  0  0  0  0
 43 75  1  0  0  0  0
M  END
> <PUBCHEM_COMPOUND_CID>
137643183

> <PUBCHEM_CONFORMER_RMSD>
1.2

> <PUBCHEM_CONFORMER_DIVERSEORDER>
1
241
357
365
141
50
419
403
262
392
417
17
439
391
273
418
436
28
186
431
88
398
347
95
354
394
61
343
451
8
444
143
142
122
99
441
155
239
21
348
23
123
278
19
11
437
14
267
423
310
414
449
56
227
434
182
137
397
242
346
79
420
404
228
292
7
212
349
411
291
146
424
393
200
72
195
216
234
303
320
342
358
261
223
54
84
301
328
38
448
295
117
90
13
442
78
306
219
299
353
253
370
258
20
433
396
389
136
429
379
73
49
166
3
382
324
108
297
322
107
185
87
85
243
425
229
395
42
151
15
192
335
446
52
138
410
385
294
438
51
114
119
57
314
83
362
67
81
139
204
311
169
422
69
187
231
160
427
96
40
416
37
222
203
390
197
170
101
300
386
327
289
364
164
350
236
64
280
149
340
260
4
124
388
412
41
413
91
26
284
338
29
156
246
196
22
74
259
220
163
30
408
112
127
45
70
180
430
339
330
356
336
240
176
135
440
318
366
147
58
53
18
110
171
133
132
375
232
266
217
270
341
279
158
92
193
144
326
432
130
302
421
65
66
102
345
35
264
161
145
178
337
373
344
321
86
183
128
76
230
173
205
383
275
24
312
140
409
293
316
415
401
32
31
282
111
94
48
376
206
450
399
77
68
34
189
307
121
209
224
115
63
351
355
116
27
329
352
150
304
309
445
97
313
226
325
188
25
257
47
384
201
134
443
194
174
407
277
317
33
402
165
5
129
62
43
221
105
319
215
387
199
372
237
152
80
100
406
333
6
287
9
93
359
283
198
16
288
235
405
157
271
255
428
210
125
44
296
218
367
89
244
118
98
247
238
248
55
214
233
447
39
71
103
254
131
369
334
191
106
276
104
113
281
207
82
109
181
274
305
298
168
184
148
286
435
213
371
400
426
36
272
75
59
363
2
268
126
380
265
251
269
361
360
308
120
167
252
177
374
377
153
159
172
179
202
245
60
250
249
285
263
211
154
381
256
175
162
225
315
10
378
323
332
368
46
190
208
290
12
331

> <PUBCHEM_MMFF94_PARTIAL_CHARGES>
53
1 -0.11
10 -0.23
11 -0.42
12 0.46
13 -0.12
14 -0.12
15 -0.18
16 -0.04
17 -0.04
18 0.23
19 -0.04
2 -0.02
20 0.71
21 0.71
22 0.14
23 0.14
24 0.05
25 0.18
26 -0.15
27 -0.15
28 0.46
29 0.28
3 -0.43
30 0.05
31 -0.15
32 -0.15
33 0.26
34 0.11
35 -0.3
36 0.14
38 -0.14
39 -0.15
4 -0.43
40 -0.15
41 -0.15
42 -0.15
43 -0.15
45 0.4
5 -0.57
55 0.15
56 0.15
6 -0.57
61 0.15
62 0.15
67 0.15
7 -0.6
71 0.15
72 0.15
73 0.15
74 0.15
75 0.15
8 -0.41
9 0.31

> <PUBCHEM_EFFECTIVE_ROTOR_COUNT>
12.4

> <PUBCHEM_PHARMACOPHORE_FEATURES>
11
1 1 hydrophobe
1 5 acceptor
1 6 acceptor
1 7 cation
1 7 donor
1 8 acceptor
5 2 8 15 18 19 rings
5 9 10 11 30 35 rings
6 24 26 27 31 32 34 rings
6 38 39 40 41 42 43 rings
6 7 12 13 14 16 17 rings

> <PUBCHEM_HEAVY_ATOM_COUNT>
43

> <PUBCHEM_ATOM_DEF_STEREO_COUNT>
0

> <PUBCHEM_ATOM_UDEF_STEREO_COUNT>
1

> <PUBCHEM_BOND_DEF_STEREO_COUNT>
0

> <PUBCHEM_BOND_UDEF_STEREO_COUNT>
0

> <PUBCHEM_ISOTOPIC_ATOM_COUNT>
0

> <PUBCHEM_COMPONENT_COUNT>
1

> <PUBCHEM_CACTVS_TAUTO_COUNT>
-1

> <PUBCHEM_CONFORMER_ID>
083444AF00000001

> <PUBCHEM_MMFF94_ENERGY>
82.4456

> <PUBCHEM_FEATURE_SELFOVERLAP>
55.823

> <PUBCHEM_SHAPE_FINGERPRINT>
11578080 2 18044637716662134773
12107698 1 17846491539386107678
12422481 6 17460300067995914834
14279260 333 17770802130495288478
14705955 166 18194103326335636520
14747281 78 17695924224375757561
150020 26 17679869198203490634
15200665 1 18042404802167848022
15406563 42 18191579972750792048
20600515 1 17756977179301113039
20764821 26 18340199705373126120
3493558 16 15767283088125741675
35225 105 18047723135558157606
392239 28 18341609364841644390
469060 322 18042132110251630051
5252454 2 18191310381637190812

> <PUBCHEM_SHAPE_MULTIPOLES>
836.61
10.71
5.13
3.93
7.11
1.59
-0.03
-3.36
-3.88
1.1
-1.6
-2.17
-1.35
2.18

> <PUBCHEM_SHAPE_SELFOVERLAP>
1795.756

> <PUBCHEM_SHAPE_VOLUME>
471.4

> <PUBCHEM_COORDINATE_TYPE>
2
5
10

$$$$