688812
  -OEChem-03242010103D

 43 45  0     0  0  0  0  0  0999 V2000
   -0.7153   -0.9061   -0.0819 O   0  0  0  0  0  0  0  0  0  0  0  0
    0.3720    2.5636   -0.6874 O   0  0  0  0  0  0  0  0  0  0  0  0
   -6.2077   -0.5050    0.2979 O   0  0  0  0  0  0  0  0  0  0  0  0
    4.4003   -0.2841    1.8504 O   0  0  0  0  0  0  0  0  0  0  0  0
   -2.3927    2.7855   -0.4836 O   0  0  0  0  0  0  0  0  0  0  0  0
    5.5613   -0.9280   -0.5916 O   0  0  0  0  0  0  0  0  0  0  0  0
    0.0617    0.2216   -0.2952 C   0  0  0  0  0  0  0  0  0  0  0  0
   -2.7095    0.4770   -0.1205 C   0  0  0  0  0  0  0  0  0  0  0  0
   -2.0752   -0.7568    0.0053 C   0  0  0  0  0  0  0  0  0  0  0  0
    1.5027   -0.0790   -0.3694 C   0  0  0  0  0  0  0  0  0  0  0  0
   -0.4261    1.4668   -0.4436 C   0  0  0  0  0  0  0  0  0  0  0  0
   -1.8916    1.6760   -0.3594 C   0  0  0  0  0  0  0  0  0  0  0  0
   -4.1002    0.5687   -0.0228 C   0  0  0  0  0  0  0  0  0  0  0  0
    2.2842   -0.0406    0.7857 C   0  0  0  0  0  0  0  0  0  0  0  0
   -2.8291   -1.9094    0.2295 C   0  0  0  0  0  0  0  0  0  0  0  0
    2.0861   -0.4020   -1.5949 C   0  0  0  0  0  0  0  0  0  0  0  0
   -4.8519   -0.5853    0.2018 C   0  0  0  0  0  0  0  0  0  0  0  0
    3.6479   -0.3250    0.7155 C   0  0  0  0  0  0  0  0  0  0  0  0
   -4.2179   -1.8220    0.3277 C   0  0  0  0  0  0  0  0  0  0  0  0
    4.2307   -0.6480   -0.5101 C   0  0  0  0  0  0  0  0  0  0  0  0
    3.4498   -0.6864   -1.6652 C   0  0  0  0  0  0  0  0  0  0  0  0
    0.7837    3.1665    0.5246 C   0  0  0  0  0  0  0  0  0  0  0  0
    5.0037    0.9646    2.1832 C   0  0  0  0  0  0  0  0  0  0  0  0
   -6.9152   -1.7222    0.5274 C   0  0  0  0  0  0  0  0  0  0  0  0
    5.9484   -2.2904   -0.4236 C   0  0  0  0  0  0  0  0  0  0  0  0
   -4.6065    1.5255   -0.1195 H   0  0  0  0  0  0  0  0  0  0  0  0
    1.8366    0.1991    1.7478 H   0  0  0  0  0  0  0  0  0  0  0  0
   -2.3421   -2.8758    0.3286 H   0  0  0  0  0  0  0  0  0  0  0  0
    1.4902   -0.4364   -2.5037 H   0  0  0  0  0  0  0  0  0  0  0  0
   -4.7429   -2.7548    0.5025 H   0  0  0  0  0  0  0  0  0  0  0  0
    3.8973   -0.9365   -2.6233 H   0  0  0  0  0  0  0  0  0  0  0  0
    1.4029    2.5060    1.1348 H   0  0  0  0  0  0  0  0  0  0  0  0
   -0.0775    3.5101    1.1086 H   0  0  0  0  0  0  0  0  0  0  0  0
    1.3860    4.0455    0.2751 H   0  0  0  0  0  0  0  0  0  0  0  0
    4.2376    1.7298    2.3441 H   0  0  0  0  0  0  0  0  0  0  0  0
    5.6922    1.2822    1.3939 H   0  0  0  0  0  0  0  0  0  0  0  0
    5.5695    0.8355    3.1099 H   0  0  0  0  0  0  0  0  0  0  0  0
   -7.9802   -1.4727    0.5761 H   0  0  0  0  0  0  0  0  0  0  0  0
   -6.6474   -2.1681    1.4913 H   0  0  0  0  0  0  0  0  0  0  0  0
   -6.7897   -2.4239   -0.3042 H   0  0  0  0  0  0  0  0  0  0  0  0
    5.5019   -2.9149   -1.2039 H   0  0  0  0  0  0  0  0  0  0  0  0
    5.6534   -2.6558    0.5651 H   0  0  0  0  0  0  0  0  0  0  0  0
    7.0369   -2.3502   -0.5080 H   0  0  0  0  0  0  0  0  0  0  0  0
  1  7  1  0  0  0  0
  1  9  1  0  0  0  0
  2 11  1  0  0  0  0
  2 22  1  0  0  0  0
  3 17  1  0  0  0  0
  3 24  1  0  0  0  0
  4 18  1  0  0  0  0
  4 23  1  0  0  0  0
  5 12  2  0  0  0  0
  6 20  1  0  0  0  0
  6 25  1  0  0  0  0
  7 10  1  0  0  0  0
  7 11  2  0  0  0  0
  8  9  2  0  0  0  0
  8 12  1  0  0  0  0
  8 13  1  0  0  0  0
  9 15  1  0  0  0  0
 10 14  2  0  0  0  0
 10 16  1  0  0  0  0
 11 12  1  0  0  0  0
 13 17  2  0  0  0  0
 13 26  1  0  0  0  0
 14 18  1  0  0  0  0
 14 27  1  0  0  0  0
 15 19  2  0  0  0  0
 15 28  1  0  0  0  0
 16 21  2  0  0  0  0
 16 29  1  0  0  0  0
 17 19  1  0  0  0  0
 18 20  2  0  0  0  0
 19 30  1  0  0  0  0
 20 21  1  0  0  0  0
 21 31  1  0  0  0  0
 22 32  1  0  0  0  0
 22 33  1  0  0  0  0
 22 34  1  0  0  0  0
 23 35  1  0  0  0  0
 23 36  1  0  0  0  0
 23 37  1  0  0  0  0
 24 38  1  0  0  0  0
 24 39  1  0  0  0  0
 24 40  1  0  0  0  0
 25 41  1  0  0  0  0
 25 42  1  0  0  0  0
 25 43  1  0  0  0  0
M  END
> <PUBCHEM_COMPOUND_CID>
688812

> <PUBCHEM_CONFORMER_RMSD>
0.8

> <PUBCHEM_CONFORMER_DIVERSEORDER>
1
7
10
3
5
9
11
4
8
2
6

> <PUBCHEM_MMFF94_PARTIAL_CHARGES>
31
1 -0.16
10 0.03
11 0.09
12 0.47
13 -0.15
14 -0.15
15 -0.15
16 -0.15
17 0.08
18 0.08
19 -0.15
2 -0.36
20 0.08
21 -0.15
22 0.28
23 0.28
24 0.28
25 0.28
26 0.15
27 0.15
28 0.15
29 0.15
3 -0.36
30 0.15
31 0.15
4 -0.36
5 -0.57
6 -0.36
7 0.05
8 0.09
9 0.08

> <PUBCHEM_EFFECTIVE_ROTOR_COUNT>
5

> <PUBCHEM_PHARMACOPHORE_FEATURES>
9
1 1 acceptor
1 2 acceptor
1 3 acceptor
1 4 acceptor
1 5 acceptor
1 6 acceptor
6 1 7 8 9 11 12 rings
6 10 14 16 18 20 21 rings
6 8 9 13 15 17 19 rings

> <PUBCHEM_HEAVY_ATOM_COUNT>
25

> <PUBCHEM_ATOM_DEF_STEREO_COUNT>
0

> <PUBCHEM_ATOM_UDEF_STEREO_COUNT>
0

> <PUBCHEM_BOND_DEF_STEREO_COUNT>
0

> <PUBCHEM_BOND_UDEF_STEREO_COUNT>
0

> <PUBCHEM_ISOTOPIC_ATOM_COUNT>
0

> <PUBCHEM_COMPONENT_COUNT>
1

> <PUBCHEM_CACTVS_TAUTO_COUNT>
1

> <PUBCHEM_CONFORMER_ID>
000A82AC00000001

> <PUBCHEM_MMFF94_ENERGY>
111.7198

> <PUBCHEM_FEATURE_SELFOVERLAP>
45.712

> <PUBCHEM_SHAPE_FINGERPRINT>
10319926 262 18267850698030829714
11545043 162 18269835333551153858
11796584 16 17313391157453139939
12166972 35 17749396965834728990
12236239 1 17530688675885242966
12403259 415 18060133215799958884
12516196 113 18413110579983234902
12553582 1 18334850636822182607
12788726 201 18113620045364676545
13140716 1 18265614475915865995
13288520 33 18408046200036251911
13583140 156 18058999567946363454
13673619 4 17917160399310730038
13782708 43 17988361473157962246
13862211 1 18408890655126438223
14251752 14 17095512986366572167
14294032 229 17606399844326798597
14341114 176 18060137660711218152
15131766 46 16055168389209155552
15183329 4 16443340958369822135
17349148 13 17313105224584712202
17492 89 17979077407922583183
17804303 29 18409451397223803397
1813 80 17603579759429120220
18222031 100 18410013251417024342
18681886 176 18113905957712562262
19141452 34 17917430969028158479
200 152 16008747991710136557
20028762 73 18200877400400595095
21033648 29 17417799613642908377
21065201 7 18336542703918607546
21267235 1 18334022705072817539
21792934 111 18342177796191330569
21859007 373 18116130256851177645
22122407 14 15410621440471295931
2297311 6 18410863126760966366
23366157 5 17752207450800212733
23402539 116 18409730621162722319
23536379 177 15502088653434454119
23557571 272 18341336583005244164
23559900 14 18335984267453789413
3004659 81 17749112205145051190
335352 9 18408325480653855261
3383291 50 18261677082060165475
3411729 13 18121779697380702840
34797466 226 18201733864355341524
4340502 62 15769779056614251439
465052 167 18337965583613338423
5104073 3 18200869570436759432
57527293 21 17987779926412568238
59755656 215 18335423413397559454
7495541 125 18131069312710320598

> <PUBCHEM_SHAPE_MULTIPOLES>
479.27
14.05
2.54
1.29
4.88
1.7
-0.3
-9.57
-3.37
0.43
0.1
-2.2
0.1
1.68

> <PUBCHEM_SHAPE_SELFOVERLAP>
1043.743

> <PUBCHEM_SHAPE_VOLUME>
262

> <PUBCHEM_COORDINATE_TYPE>
2
5
10

$$$$