158
 OpenBabel03292022013D

 41 45  0  0  0  0  0  0  0  0999 V2000
    1.0258    0.2429   -0.0570 O   0  0  0  0  0  0  0  0  0  0  0  0
    2.2450    0.1444   -0.0429 C   0  0  0  0  0  0  0  0  0  0  0  0
    2.9696   -1.1611   -0.0547 C   0  0  0  0  0  0  0  0  0  0  0  0
    4.3157   -1.1617   -0.0427 C   0  0  0  0  0  0  0  0  0  0  0  0
    5.0633   -2.4265   -0.0366 C   0  0  0  0  0  0  0  0  0  0  0  0
    5.4007   -3.0616   -1.2383 C   0  0  0  0  0  0  0  0  0  0  0  0
    6.1440   -4.2444   -1.2242 C   0  0  0  0  0  0  0  0  0  0  0  0
    6.5528   -4.7991   -0.0117 C   0  0  0  0  0  0  0  0  0  0  0  0
    6.2166   -4.1751    1.1883 C   0  0  0  0  0  0  0  0  0  0  0  0
    5.4745   -2.9919    1.1776 C   0  0  0  0  0  0  0  0  0  0  0  0
    5.0535    0.0037   -0.0232 N   0  0  0  0  0  0  0  0  0  0  0  0
    4.4574    1.2112   -0.0151 C   0  0  0  0  0  0  0  0  0  0  0  0
    4.9563    2.4182   -0.0195 N   0  0  0  0  0  0  0  0  0  0  0  0
    3.8349    3.2107   -0.0089 C   0  0  0  0  0  0  0  0  0  0  0  0
    3.9735    4.9442   -0.1089 S   0  0  0  0  0  0  0  0  0  0  0  0
    2.4799    5.4885    0.7664 C   0  0  0  0  0  0  0  0  0  0  0  0
    2.4385    6.9829    0.8579 C   0  0  0  0  0  0  0  0  0  0  0  0
    2.4046    7.7136    1.9574 N   0  0  0  0  0  0  0  0  0  0  0  0
    2.3800    9.0231    1.5375 C   0  0  0  0  0  0  0  0  0  0  0  0
    2.3532   10.2103    2.2858 C   0  0  0  0  0  0  0  0  0  0  0  0
    2.3366   11.4357    1.6058 C   0  0  0  0  0  0  0  0  0  0  0  0
    2.3466   11.4789    0.2093 C   0  0  0  0  0  0  0  0  0  0  0  0
    2.3722   10.3053   -0.5540 C   0  0  0  0  0  0  0  0  0  0  0  0
    2.3866    9.0987    0.1501 C   0  0  0  0  0  0  0  0  0  0  0  0
    2.4130    7.7902   -0.2574 N   0  0  0  0  0  0  0  0  0  0  0  0
    2.6652    2.5630   -0.0076 N   0  0  0  0  0  0  0  0  0  0  0  0
    3.0817    1.2673   -0.0170 N   0  0  0  0  0  0  0  0  0  0  0  0
    2.3641   -2.0589   -0.0678 H   0  0  0  0  0  0  0  0  0  0  0  0
    5.0981   -2.6370   -2.1932 H   0  0  0  0  0  0  0  0  0  0  0  0
    6.4107   -4.7315   -2.1593 H   0  0  0  0  0  0  0  0  0  0  0  0
    7.1362   -5.7165   -0.0023 H   0  0  0  0  0  0  0  0  0  0  0  0
    6.5373   -4.6071    2.1335 H   0  0  0  0  0  0  0  0  0  0  0  0
    5.2270   -2.5120    2.1219 H   0  0  0  0  0  0  0  0  0  0  0  0
    6.0675   -0.0761   -0.0284 H   0  0  0  0  0  0  0  0  0  0  0  0
    2.4742    5.0636    1.7759 H   0  0  0  0  0  0  0  0  0  0  0  0
    1.5854    5.1371    0.2412 H   0  0  0  0  0  0  0  0  0  0  0  0
    2.3484   10.1703    3.3691 H   0  0  0  0  0  0  0  0  0  0  0  0
    2.3173   12.3629    2.1742 H   0  0  0  0  0  0  0  0  0  0  0  0
    2.3352   12.4435   -0.2950 H   0  0  0  0  0  0  0  0  0  0  0  0
    2.3819   10.3402   -1.6376 H   0  0  0  0  0  0  0  0  0  0  0  0
    2.4464    7.4676   -1.2134 H   0  0  0  0  0  0  0  0  0  0  0  0
  1  2  2  0  0  0  0
  2  3  1  0  0  0  0
  2 27  1  0  0  0  0
  3  4  2  0  0  0  0
  3 28  1  0  0  0  0
  4  5  1  0  0  0  0
  4 11  1  0  0  0  0
  5  6  1  0  0  0  0
  5 10  2  0  0  0  0
  6  7  2  0  0  0  0
  6 29  1  0  0  0  0
  7  8  1  0  0  0  0
  7 30  1  0  0  0  0
  8  9  2  0  0  0  0
  8 31  1  0  0  0  0
  9 10  1  0  0  0  0
  9 32  1  0  0  0  0
 10 33  1  0  0  0  0
 11 12  1  0  0  0  0
 11 34  1  0  0  0  0
 12 13  2  0  0  0  0
 12 27  1  0  0  0  0
 13 14  1  0  0  0  0
 14 15  1  0  0  0  0
 14 26  2  0  0  0  0
 15 16  1  0  0  0  0
 16 17  1  0  0  0  0
 16 35  1  0  0  0  0
 16 36  1  0  0  0  0
 17 18  2  0  0  0  0
 17 25  1  0  0  0  0
 18 19  1  0  0  0  0
 19 20  1  0  0  0  0
 19 24  2  0  0  0  0
 20 21  2  0  0  0  0
 20 37  1  0  0  0  0
 21 22  1  0  0  0  0
 21 38  1  0  0  0  0
 22 23  2  0  0  0  0
 22 39  1  0  0  0  0
 23 24  1  0  0  0  0
 23 40  1  0  0  0  0
 24 25  1  0  0  0  0
 25 41  1  0  0  0  0
 26 27  1  0  0  0  0
M  END
>  <Energy>
45.3322

$$$$