134141342
  -OEChem-03242010103D

 50 53  0     1  0  0  0  0  0999 V2000
   -6.3692   -0.0154    1.6156 Br  0  0  0  0  0  0  0  0  0  0  0  0
   -2.8269    2.5572   -1.3199 O   0  0  0  0  0  0  0  0  0  0  0  0
   -2.4649   -3.4372   -0.6304 O   0  0  0  0  0  0  0  0  0  0  0  0
   -5.3643    2.2148   -0.3052 O   0  0  0  0  0  0  0  0  0  0  0  0
   -0.6687   -2.0868   -0.0995 N   0  0  0  0  0  0  0  0  0  0  0  0
    0.6156   -1.7154   -0.3704 N   0  0  0  0  0  0  0  0  0  0  0  0
   -1.2268   -1.4087    1.0725 C   0  0  1  0  0  0  0  0  0  0  0  0
   -0.0135   -0.7228    1.6887 C   0  0  0  0  0  0  0  0  0  0  0  0
    0.9984   -0.9276    0.5882 C   0  0  0  0  0  0  0  0  0  0  0  0
   -2.3368   -0.4428    0.7086 C   0  0  0  0  0  0  0  0  0  0  0  0
    2.3350   -0.2955    0.6318 C   0  0  0  0  0  0  0  0  0  0  0  0
   -2.0757    0.6284   -0.1458 C   0  0  0  0  0  0  0  0  0  0  0  0
   -3.6191   -0.6252    1.2264 C   0  0  0  0  0  0  0  0  0  0  0  0
   -1.3208   -3.0409   -0.8571 C   0  0  0  0  0  0  0  0  0  0  0  0
    3.2420   -0.5108   -0.4064 C   0  0  0  0  0  0  0  0  0  0  0  0
    2.6874    0.5132    1.7083 C   0  0  0  0  0  0  0  0  0  0  0  0
   -3.0966    1.5172   -0.4822 C   0  0  0  0  0  0  0  0  0  0  0  0
    4.5150    0.0815   -0.3801 C   0  0  0  0  0  0  0  0  0  0  0  0
   -4.6401    0.2635    0.8901 C   0  0  0  0  0  0  0  0  0  0  0  0
    4.8734    0.9038    0.7147 C   0  0  0  0  0  0  0  0  0  0  0  0
   -4.3789    1.3348    0.0357 C   0  0  0  0  0  0  0  0  0  0  0  0
    3.9480    1.1096    1.7509 C   0  0  0  0  0  0  0  0  0  0  0  0
   -0.5330   -3.5951   -2.0188 C   0  0  0  0  0  0  0  0  0  0  0  0
    5.4405   -0.1243   -1.4162 C   0  0  0  0  0  0  0  0  0  0  0  0
    6.1466    1.4959    0.7411 C   0  0  0  0  0  0  0  0  0  0  0  0
    6.7011    0.4719   -1.3735 C   0  0  0  0  0  0  0  0  0  0  0  0
    7.0536    1.2804   -0.2970 C   0  0  0  0  0  0  0  0  0  0  0  0
   -1.4897    2.6695   -1.8034 C   0  0  0  0  0  0  0  0  0  0  0  0
   -6.1315    1.9070   -1.4664 C   0  0  0  0  0  0  0  0  0  0  0  0
   -1.6154   -2.1785    1.7506 H   0  0  0  0  0  0  0  0  0  0  0  0
    0.3281   -1.2606    2.5798 H   0  0  0  0  0  0  0  0  0  0  0  0
   -0.1673    0.3318    1.9302 H   0  0  0  0  0  0  0  0  0  0  0  0
   -1.0658    0.7261   -0.5261 H   0  0  0  0  0  0  0  0  0  0  0  0
   -3.8196   -1.4617    1.8919 H   0  0  0  0  0  0  0  0  0  0  0  0
    2.9698   -1.1422   -1.2504 H   0  0  0  0  0  0  0  0  0  0  0  0
    2.0106    0.6988    2.5365 H   0  0  0  0  0  0  0  0  0  0  0  0
    4.2029    1.7369    2.6026 H   0  0  0  0  0  0  0  0  0  0  0  0
    0.3657   -4.1012   -1.6553 H   0  0  0  0  0  0  0  0  0  0  0  0
   -0.2560   -2.7893   -2.7042 H   0  0  0  0  0  0  0  0  0  0  0  0
   -1.1452   -4.3197   -2.5635 H   0  0  0  0  0  0  0  0  0  0  0  0
    5.1870   -0.7525   -2.2677 H   0  0  0  0  0  0  0  0  0  0  0  0
    6.4435    2.1316    1.5727 H   0  0  0  0  0  0  0  0  0  0  0  0
    7.4076    0.3045   -2.1813 H   0  0  0  0  0  0  0  0  0  0  0  0
    8.0351    1.7443   -0.2645 H   0  0  0  0  0  0  0  0  0  0  0  0
   -1.4557    3.5512   -2.4520 H   0  0  0  0  0  0  0  0  0  0  0  0
   -1.2103    1.8103   -2.4229 H   0  0  0  0  0  0  0  0  0  0  0  0
   -0.7787    2.8481   -0.9895 H   0  0  0  0  0  0  0  0  0  0  0  0
   -6.9708    2.6061   -1.5171 H   0  0  0  0  0  0  0  0  0  0  0  0
   -6.5281    0.8878   -1.4276 H   0  0  0  0  0  0  0  0  0  0  0  0
   -5.5199    2.0317   -2.3655 H   0  0  0  0  0  0  0  0  0  0  0  0
  1 19  1  0  0  0  0
  2 17  1  0  0  0  0
  2 28  1  0  0  0  0
  3 14  2  0  0  0  0
  4 21  1  0  0  0  0
  4 29  1  0  0  0  0
  5  6  1  0  0  0  0
  5  7  1  0  0  0  0
  5 14  1  0  0  0  0
  6  9  2  0  0  0  0
  7  8  1  0  0  0  0
  7 10  1  0  0  0  0
  7 30  1  0  0  0  0
  8  9  1  0  0  0  0
  8 31  1  0  0  0  0
  8 32  1  0  0  0  0
  9 11  1  0  0  0  0
 10 12  2  0  0  0  0
 10 13  1  0  0  0  0
 11 15  2  0  0  0  0
 11 16  1  0  0  0  0
 12 17  1  0  0  0  0
 12 33  1  0  0  0  0
 13 19  2  0  0  0  0
 13 34  1  0  0  0  0
 14 23  1  0  0  0  0
 15 18  1  0  0  0  0
 15 35  1  0  0  0  0
 16 22  2  0  0  0  0
 16 36  1  0  0  0  0
 17 21  2  0  0  0  0
 18 20  1  0  0  0  0
 18 24  2  0  0  0  0
 19 21  1  0  0  0  0
 20 22  1  0  0  0  0
 20 25  2  0  0  0  0
 22 37  1  0  0  0  0
 23 38  1  0  0  0  0
 23 39  1  0  0  0  0
 23 40  1  0  0  0  0
 24 26  1  0  0  0  0
 24 41  1  0  0  0  0
 25 27  1  0  0  0  0
 25 42  1  0  0  0  0
 26 27  2  0  0  0  0
 26 43  1  0  0  0  0
 27 44  1  0  0  0  0
 28 45  1  0  0  0  0
 28 46  1  0  0  0  0
 28 47  1  0  0  0  0
 29 48  1  0  0  0  0
 29 49  1  0  0  0  0
 29 50  1  0  0  0  0
M  END
> <PUBCHEM_COMPOUND_CID>
134141342

> <PUBCHEM_CONFORMER_RMSD>
0.8

> <PUBCHEM_CONFORMER_DIVERSEORDER>
1
54
70
96
86
72
68
8
42
95
108
77
99
30
102
16
46
105
101
73
52
75
80
65
85
15
39
81
31
14
41
6
84
38
92
61
97
58
109
7
100
104
74
37
76
87
82
40
2
107
94
88
34
19
64
78
45
17
51
83
53
103
5
48
44
10
47
43
106
89
36
98
57
93
23
59
13
25
69
21
90
62
49
91
33
79
32
20
63
29
55
66
22
56
67
60
71
50
27
18
4
12
3
26
9
28
35
24
11

> <PUBCHEM_MMFF94_PARTIAL_CHARGES>
36
1 -0.11
10 -0.14
11 0.09
12 -0.15
13 -0.15
14 0.57
15 -0.15
16 -0.15
17 0.08
19 0.11
2 -0.36
21 0.08
22 -0.15
23 0.06
24 -0.15
25 -0.15
26 -0.15
27 -0.15
28 0.28
29 0.28
3 -0.57
33 0.15
34 0.15
35 0.15
36 0.15
37 0.15
4 -0.36
41 0.15
42 0.15
43 0.15
44 0.15
5 -0.3
6 -0.51
7 0.44
8 0.06
9 0.3

> <PUBCHEM_EFFECTIVE_ROTOR_COUNT>
5.6

> <PUBCHEM_PHARMACOPHORE_FEATURES>
9
1 1 hydrophobe
1 2 acceptor
1 3 acceptor
1 4 acceptor
1 6 acceptor
5 5 6 7 8 9 rings
6 10 12 13 17 19 21 rings
6 11 15 16 18 20 22 rings
6 18 20 24 25 26 27 rings

> <PUBCHEM_HEAVY_ATOM_COUNT>
29

> <PUBCHEM_ATOM_DEF_STEREO_COUNT>
0

> <PUBCHEM_ATOM_UDEF_STEREO_COUNT>
1

> <PUBCHEM_BOND_DEF_STEREO_COUNT>
0

> <PUBCHEM_BOND_UDEF_STEREO_COUNT>
0

> <PUBCHEM_ISOTOPIC_ATOM_COUNT>
0

> <PUBCHEM_COMPONENT_COUNT>
1

> <PUBCHEM_CACTVS_TAUTO_COUNT>
2

> <PUBCHEM_CONFORMER_ID>
07FED59E00000001

> <PUBCHEM_MMFF94_ENERGY>
104.7452

> <PUBCHEM_FEATURE_SELFOVERLAP>
45.705

> <PUBCHEM_SHAPE_FINGERPRINT>
10006869 2 17823963555118352581
10165383 225 18201449068730600723
10369192 42 18271815605516620169
105312 117 18342457045182978622
10670039 82 17894916192253655092
10906281 52 18043526111171603749
11488393 25 17982739575668597655
11595378 159 17458335339121284512
11796584 16 11600003224041672977
11991303 11 18342740753485239263
12236239 1 16588024610857519392
12516196 113 11241975892666027539
12596602 18 16081089272760059632
12760667 363 8574715693551840227
12969540 114 18201431463511759643
13402501 40 18409167705690988368
13911987 19 18201716228739536681
14279260 333 17059225726789851646
14294032 229 18409446994908510325
14341114 328 16950283974983019145
14840074 17 18260257522105797773
14856354 85 17458918148797956322
15183329 4 16343704309576831624
15238133 3 17385729106177308260
15324884 4 18047221599796276267
15575132 122 18187638051640183093
15961568 22 17968100776624526221
17980427 23 17603872187379024823
19958102 18 18201997763682753286
21033648 29 18343576356815841336
21756936 100 17967249836466025706
22122407 14 16950580886141120764
22393880 68 18059574745977845570
23198884 109 17632866321149953225
23559900 14 17679309559775661507
24771293 8 18261115111733631725
25019877 29 18060429036041610623
2838139 119 18336536145007914736
3004659 81 13110958726113959728
3729539 64 17914910746574952766
392239 28 16588892159933992441
4015057 19 15840976884151509914
44249763 50 18270671099996295080
44802255 64 18337967769873245446
508706 21 18270109236125923494
5252454 2 18341323440241866218
5718773 13 9366758777752396217
57527293 21 18264486188466513451
57527585 21 18050260623912548893
59755656 520 17847067696396073683
6327066 14 18409161087288375077
6608658 132 18187631514520389533
6669772 16 18130795516492395678
7808743 9 18334010601459208592

> <PUBCHEM_SHAPE_MULTIPOLES>
575.18
16.56
3.12
1.83
12.19
2.23
0.1
-11.1
0.56
-3.39
2.24
-0.34
-0.07
1.69

> <PUBCHEM_SHAPE_SELFOVERLAP>
1246.24

> <PUBCHEM_SHAPE_VOLUME>
324.3

> <PUBCHEM_COORDINATE_TYPE>
2
5
10

$$$$