137648146
  -OEChem-03242010103D

 45 48  0     0  0  0  0  0  0999 V2000
    3.6054    1.2726    1.7842 O   0  0  0  0  0  0  0  0  0  0  0  0
    5.6993    0.6100    0.0797 O   0  0  0  0  0  0  0  0  0  0  0  0
    0.6794   -1.6539   -0.6576 N   0  0  0  0  0  0  0  0  0  0  0  0
   -0.8251    0.1441   -0.4571 N   0  0  0  0  0  0  0  0  0  0  0  0
   -3.1332   -0.2427    0.1173 N   0  0  0  0  0  0  0  0  0  0  0  0
   -3.6072    2.3214    0.0115 N   0  0  0  0  0  0  0  0  0  0  0  0
   -1.6320   -2.1026   -0.0781 C   0  0  0  0  0  0  0  0  0  0  0  0
   -0.6313   -1.1865   -0.3903 C   0  0  0  0  0  0  0  0  0  0  0  0
   -2.9050   -1.5664    0.1754 C   0  0  0  0  0  0  0  0  0  0  0  0
    1.9466   -1.0799   -0.4688 C   0  0  0  0  0  0  0  0  0  0  0  0
   -1.4050   -3.4884   -0.0146 C   0  0  0  0  0  0  0  0  0  0  0  0
   -2.0810    0.5406   -0.1957 C   0  0  0  0  0  0  0  0  0  0  0  0
    2.1551   -0.1771    0.5739 C   0  0  0  0  0  0  0  0  0  0  0  0
   -3.9323   -2.4524    0.4913 C   0  0  0  0  0  0  0  0  0  0  0  0
    2.9972   -1.4126   -1.3239 C   0  0  0  0  0  0  0  0  0  0  0  0
    3.4144    0.3929    0.7617 C   0  0  0  0  0  0  0  0  0  0  0  0
   -2.4497   -4.3506    0.3034 C   0  0  0  0  0  0  0  0  0  0  0  0
    4.4650    0.0602   -0.0935 C   0  0  0  0  0  0  0  0  0  0  0  0
   -3.7146   -3.8317    0.5565 C   0  0  0  0  0  0  0  0  0  0  0  0
    4.2563   -0.8424   -1.1363 C   0  0  0  0  0  0  0  0  0  0  0  0
   -2.3333    1.9566   -0.2563 C   0  0  0  0  0  0  0  0  0  0  0  0
   -1.3204    2.8488   -0.5693 C   0  0  0  0  0  0  0  0  0  0  0  0
   -1.6353    4.2025   -0.6098 C   0  0  0  0  0  0  0  0  0  0  0  0
   -3.8757    3.6454   -0.0376 C   0  0  0  0  0  0  0  0  0  0  0  0
   -2.9350    4.6168   -0.3401 C   0  0  0  0  0  0  0  0  0  0  0  0
    2.4795    1.5582    2.6119 C   0  0  0  0  0  0  0  0  0  0  0  0
    6.7181    0.2169   -0.8378 C   0  0  0  0  0  0  0  0  0  0  0  0
    0.6919   -2.4593   -1.2774 H   0  0  0  0  0  0  0  0  0  0  0  0
   -0.4275   -3.9252   -0.1986 H   0  0  0  0  0  0  0  0  0  0  0  0
    1.3141    0.0367    1.2239 H   0  0  0  0  0  0  0  0  0  0  0  0
   -4.9315   -2.0715    0.6938 H   0  0  0  0  0  0  0  0  0  0  0  0
    2.8472   -2.1142   -2.1407 H   0  0  0  0  0  0  0  0  0  0  0  0
   -2.2783   -5.4214    0.3555 H   0  0  0  0  0  0  0  0  0  0  0  0
   -4.5355   -4.4978    0.8059 H   0  0  0  0  0  0  0  0  0  0  0  0
    5.0245   -1.1469   -1.8387 H   0  0  0  0  0  0  0  0  0  0  0  0
   -0.3014    2.5424   -0.7813 H   0  0  0  0  0  0  0  0  0  0  0  0
   -0.8696    4.9337   -0.8509 H   0  0  0  0  0  0  0  0  0  0  0  0
   -4.9035    3.9163    0.1804 H   0  0  0  0  0  0  0  0  0  0  0  0
   -3.2031    5.6667   -0.3659 H   0  0  0  0  0  0  0  0  0  0  0  0
    2.8104    2.2790    3.3671 H   0  0  0  0  0  0  0  0  0  0  0  0
    2.1388    0.6682    3.1519 H   0  0  0  0  0  0  0  0  0  0  0  0
    1.6736    2.0395    2.0471 H   0  0  0  0  0  0  0  0  0  0  0  0
    7.6315    0.7493   -0.5525 H   0  0  0  0  0  0  0  0  0  0  0  0
    6.4789    0.5229   -1.8620 H   0  0  0  0  0  0  0  0  0  0  0  0
    6.9378   -0.8535   -0.7627 H   0  0  0  0  0  0  0  0  0  0  0  0
  1 16  1  0  0  0  0
  1 26  1  0  0  0  0
  2 18  1  0  0  0  0
  2 27  1  0  0  0  0
  3  8  1  0  0  0  0
  3 10  1  0  0  0  0
  3 28  1  0  0  0  0
  4  8  2  0  0  0  0
  4 12  1  0  0  0  0
  5  9  1  0  0  0  0
  5 12  2  0  0  0  0
  6 21  1  0  0  0  0
  6 24  2  0  0  0  0
  7  8  1  0  0  0  0
  7  9  1  0  0  0  0
  7 11  2  0  0  0  0
  9 14  2  0  0  0  0
 10 13  2  0  0  0  0
 10 15  1  0  0  0  0
 11 17  1  0  0  0  0
 11 29  1  0  0  0  0
 12 21  1  0  0  0  0
 13 16  1  0  0  0  0
 13 30  1  0  0  0  0
 14 19  1  0  0  0  0
 14 31  1  0  0  0  0
 15 20  2  0  0  0  0
 15 32  1  0  0  0  0
 16 18  2  0  0  0  0
 17 19  2  0  0  0  0
 17 33  1  0  0  0  0
 18 20  1  0  0  0  0
 19 34  1  0  0  0  0
 20 35  1  0  0  0  0
 21 22  2  0  0  0  0
 22 23  1  0  0  0  0
 22 36  1  0  0  0  0
 23 25  2  0  0  0  0
 23 37  1  0  0  0  0
 24 25  1  0  0  0  0
 24 38  1  0  0  0  0
 25 39  1  0  0  0  0
 26 40  1  0  0  0  0
 26 41  1  0  0  0  0
 26 42  1  0  0  0  0
 27 43  1  0  0  0  0
 27 44  1  0  0  0  0
 27 45  1  0  0  0  0
M  END
> <PUBCHEM_COMPOUND_CID>
137648146

> <PUBCHEM_CONFORMER_RMSD>
0.8

> <PUBCHEM_CONFORMER_DIVERSEORDER>
1
73
56
64
33
75
46
13
78
10
14
69
63
53
8
72
77
52
43
20
9
61
39
11
50
49
55
58
6
76
36
22
54
47
57
79
45
19
38
71
23
26
25
67
16
28
65
68
42
66
18
32
41
31
44
40
27
2
60
59
12
74
29
34
70
3
51
7
24
5
37
62
35
30
17
21
4
15
48

> <PUBCHEM_MMFF94_PARTIAL_CHARGES>
38
1 -0.36
10 0.1
11 -0.15
12 0.62
13 -0.15
14 -0.15
15 -0.15
16 0.08
17 -0.15
18 0.08
19 -0.15
2 -0.36
20 -0.15
21 0.31
22 -0.15
23 -0.15
24 0.16
25 -0.15
26 0.28
27 0.28
28 0.4
29 0.15
3 -0.6
30 0.15
31 0.15
32 0.15
33 0.15
34 0.15
35 0.15
36 0.15
37 0.15
38 0.15
39 0.15
4 -0.62
5 -0.62
6 -0.62
8 0.41
9 0.31

> <PUBCHEM_EFFECTIVE_ROTOR_COUNT>
5

> <PUBCHEM_PHARMACOPHORE_FEATURES>
10
1 1 acceptor
1 2 acceptor
1 3 donor
1 6 acceptor
3 3 4 8 cation
3 4 5 12 cation
6 10 13 15 16 18 20 rings
6 4 5 7 8 9 12 rings
6 6 21 22 23 24 25 rings
6 7 9 11 14 17 19 rings

> <PUBCHEM_HEAVY_ATOM_COUNT>
27

> <PUBCHEM_ATOM_DEF_STEREO_COUNT>
0

> <PUBCHEM_ATOM_UDEF_STEREO_COUNT>
0

> <PUBCHEM_BOND_DEF_STEREO_COUNT>
0

> <PUBCHEM_BOND_UDEF_STEREO_COUNT>
0

> <PUBCHEM_ISOTOPIC_ATOM_COUNT>
0

> <PUBCHEM_COMPONENT_COUNT>
1

> <PUBCHEM_CACTVS_TAUTO_COUNT>
-1

> <PUBCHEM_CONFORMER_ID>
0834581200000001

> <PUBCHEM_MMFF94_ENERGY>
114.0881

> <PUBCHEM_FEATURE_SELFOVERLAP>
50.923

> <PUBCHEM_SHAPE_FINGERPRINT>
10006869 2 18263918853219763155
10165383 225 17904776478680903236
10319926 262 18339910559970128706
10411042 1 18121504819542265567
10937287 8 18048598110363916853
11056379 131 18336837454338861918
11059845 2 17974824222136049952
12107183 9 17901095336033236242
12173636 292 18264770956933618583
12769317 202 17620183244155003621
12788726 201 18187362164167829203
13140716 1 18119537776081079251
13402501 40 18201154369359986448
13726171 33 18413395341475968040
13785724 45 17977954806333839539
138480 1 16391553638346624109
13965767 371 17463132340422220820
14114211 68 17474138413283300885
14466204 15 17039502497504530242
14508225 48 18196645418683420151
15230672 131 18047759205153290150
15961568 22 17905603655518363224
16087824 20 18409452484694574039
17980427 26 17618209616835968509
20101258 96 18264779933251723643
21033648 29 18268424625214615616
21033650 10 18044968773363750606
21049683 118 18118383074234008521
21133410 127 17031641032907326652
21792961 116 17988655086634969174
21796203 349 17395614977814813027
23366157 5 17106498477401406799
23557571 272 18412828009811021430
23559900 14 18339643450999776198
23845131 108 17975984163985692233
249057 25 17749113340197942828
283562 15 18338515245333285815
3187 122 18121478392428651785
4058900 60 17836655123380574513
508706 21 18341886385921542244
57124632 79 17615679640449008461
6287921 2 17407954848389061584
6442390 28 18120941598731117589
6700243 42 17839784583145084566
7399639 24 17984690375931560122
7808743 9 18335704893154131284
84936 182 17475792057459876941
9777508 108 18339359669672548089
9981440 41 18046631101442116113

> <PUBCHEM_SHAPE_MULTIPOLES>
523.98
10.64
6.05
1.23
17.04
2.25
0.75
1.05
-0.47
-11.99
-0.21
1.59
0.44
2.09

> <PUBCHEM_SHAPE_SELFOVERLAP>
1161.994

> <PUBCHEM_SHAPE_VOLUME>
278.8

> <PUBCHEM_COORDINATE_TYPE>
2
5
10

$$$$