56946723
  -OEChem-03242010093D

 42 44  0     0  0  0  0  0  0999 V2000
   -5.3180   -1.6963    1.4418 O   0  0  0  0  0  0  0  0  0  0  0  0
   -1.2217    2.3306    0.8895 O   0  0  0  0  0  0  0  0  0  0  0  0
    0.4473   -2.9829   -0.1656 O   0  5  0  0  0  0  0  0  0  0  0  0
    0.4885   -2.1149   -2.1815 O   0  0  0  0  0  0  0  0  0  0  0  0
   -5.8208    2.0971   -1.4753 O   0  0  0  0  0  0  0  0  0  0  0  0
   -6.8755   -0.0335   -0.2300 O   0  0  0  0  0  0  0  0  0  0  0  0
   -0.7013    0.2163   -0.0079 N   0  0  0  0  0  0  0  0  0  0  0  0
    0.7535   -2.0616   -0.9579 N   0  3  0  0  0  0  0  0  0  0  0  0
    3.5037    0.2020    0.0723 C   0  0  0  0  0  0  0  0  0  0  0  0
    0.7146    0.1930    0.0121 C   0  0  0  0  0  0  0  0  0  0  0  0
    1.4258   -0.9143   -0.4502 C   0  0  0  0  0  0  0  0  0  0  0  0
    2.8203   -0.9098   -0.4200 C   0  0  0  0  0  0  0  0  0  0  0  0
    4.9501    0.2069    0.1049 C   0  0  0  0  0  0  0  0  0  0  0  0
    2.7925    1.3094    0.5346 C   0  0  0  0  0  0  0  0  0  0  0  0
    1.3980    1.3049    0.5045 C   0  0  0  0  0  0  0  0  0  0  0  0
   -2.9556    0.9056    0.2405 C   0  0  0  0  0  0  0  0  0  0  0  0
   -1.5381    1.2406    0.4146 C   0  0  0  0  0  0  0  0  0  0  0  0
    5.6704    0.6875   -0.9887 C   0  0  0  0  0  0  0  0  0  0  0  0
    5.6241   -0.2686    1.2296 C   0  0  0  0  0  0  0  0  0  0  0  0
   -3.5160   -0.2421    0.9125 C   0  0  0  0  0  0  0  0  0  0  0  0
   -3.6684    1.7101   -0.5569 C   0  0  0  0  0  0  0  0  0  0  0  0
   -4.8027   -0.5985    0.7928 C   0  0  0  0  0  0  0  0  0  0  0  0
    7.0650    0.6925   -0.9576 C   0  0  0  0  0  0  0  0  0  0  0  0
    7.0186   -0.2636    1.2608 C   0  0  0  0  0  0  0  0  0  0  0  0
   -5.1009    1.4137   -0.7636 C   0  0  0  0  0  0  0  0  0  0  0  0
   -5.6916    0.2174   -0.0644 C   0  0  0  0  0  0  0  0  0  0  0  0
    7.7391    0.2169    0.1671 C   0  0  0  0  0  0  0  0  0  0  0  0
   -5.2009   -2.8585    0.6418 C   0  0  0  0  0  0  0  0  0  0  0  0
    3.3740   -1.7751   -0.7811 H   0  0  0  0  0  0  0  0  0  0  0  0
    3.3111    2.1836    0.9217 H   0  0  0  0  0  0  0  0  0  0  0  0
    0.9261    2.2007    0.8806 H   0  0  0  0  0  0  0  0  0  0  0  0
   -1.1439   -0.6182   -0.3854 H   0  0  0  0  0  0  0  0  0  0  0  0
    5.1606    1.0618   -1.8734 H   0  0  0  0  0  0  0  0  0  0  0  0
    5.0780   -0.6467    2.0907 H   0  0  0  0  0  0  0  0  0  0  0  0
   -2.8557   -0.8285    1.5458 H   0  0  0  0  0  0  0  0  0  0  0  0
   -3.2499    2.5714   -1.0650 H   0  0  0  0  0  0  0  0  0  0  0  0
    7.6260    1.0666   -1.8090 H   0  0  0  0  0  0  0  0  0  0  0  0
    7.5437   -0.6338    2.1364 H   0  0  0  0  0  0  0  0  0  0  0  0
    8.8249    0.2207    0.1914 H   0  0  0  0  0  0  0  0  0  0  0  0
   -5.6400   -3.6964    1.1916 H   0  0  0  0  0  0  0  0  0  0  0  0
   -4.1507   -3.0992    0.4422 H   0  0  0  0  0  0  0  0  0  0  0  0
   -5.7476   -2.7500   -0.3015 H   0  0  0  0  0  0  0  0  0  0  0  0
  1 22  1  0  0  0  0
  1 28  1  0  0  0  0
  2 17  2  0  0  0  0
  3  8  1  0  0  0  0
  4  8  2  0  0  0  0
  5 25  2  0  0  0  0
  6 26  2  0  0  0  0
  7 10  1  0  0  0  0
  7 17  1  0  0  0  0
  7 32  1  0  0  0  0
  8 11  1  0  0  0  0
  9 12  2  0  0  0  0
  9 13  1  0  0  0  0
  9 14  1  0  0  0  0
 10 11  2  0  0  0  0
 10 15  1  0  0  0  0
 11 12  1  0  0  0  0
 12 29  1  0  0  0  0
 13 18  2  0  0  0  0
 13 19  1  0  0  0  0
 14 15  2  0  0  0  0
 14 30  1  0  0  0  0
 15 31  1  0  0  0  0
 16 17  1  0  0  0  0
 16 20  1  0  0  0  0
 16 21  2  0  0  0  0
 18 23  1  0  0  0  0
 18 33  1  0  0  0  0
 19 24  2  0  0  0  0
 19 34  1  0  0  0  0
 20 22  2  0  0  0  0
 20 35  1  0  0  0  0
 21 25  1  0  0  0  0
 21 36  1  0  0  0  0
 22 26  1  0  0  0  0
 23 27  2  0  0  0  0
 23 37  1  0  0  0  0
 24 27  1  0  0  0  0
 24 38  1  0  0  0  0
 25 26  1  0  0  0  0
 27 39  1  0  0  0  0
 28 40  1  0  0  0  0
 28 41  1  0  0  0  0
 28 42  1  0  0  0  0
M  CHG  2   3  -1   8   1
M  END
> <PUBCHEM_COMPOUND_CID>
56946723

> <PUBCHEM_CONFORMER_RMSD>
0.8

> <PUBCHEM_CONFORMER_DIVERSEORDER>
1
19
21
18
17
23
22
20
3
5
15
7
16
6
12
14
8
9
10
2
13
4
11

> <PUBCHEM_MMFF94_PARTIAL_CHARGES>
37
1 -0.36
10 0.12
11 0.13
12 -0.15
14 -0.15
15 -0.15
16 0.01
17 0.62
18 -0.15
19 -0.15
2 -0.57
20 -0.15
21 -0.14
22 0.09
23 -0.15
24 -0.15
25 0.56
26 0.56
27 -0.15
28 0.28
29 0.15
3 -0.52
30 0.15
31 0.15
32 0.37
33 0.15
34 0.15
35 0.15
36 0.15
37 0.15
38 0.15
39 0.15
4 -0.52
5 -0.57
6 -0.57
7 -0.55
8 0.91

> <PUBCHEM_EFFECTIVE_ROTOR_COUNT>
6

> <PUBCHEM_PHARMACOPHORE_FEATURES>
11
1 1 acceptor
1 2 acceptor
1 3 acceptor
1 3 anion
1 4 acceptor
1 5 acceptor
1 6 acceptor
1 7 donor
6 13 18 19 23 24 27 rings
6 16 20 21 22 25 26 rings
6 9 10 11 12 14 15 rings

> <PUBCHEM_HEAVY_ATOM_COUNT>
28

> <PUBCHEM_ATOM_DEF_STEREO_COUNT>
0

> <PUBCHEM_ATOM_UDEF_STEREO_COUNT>
0

> <PUBCHEM_BOND_DEF_STEREO_COUNT>
0

> <PUBCHEM_BOND_UDEF_STEREO_COUNT>
0

> <PUBCHEM_ISOTOPIC_ATOM_COUNT>
0

> <PUBCHEM_COMPONENT_COUNT>
1

> <PUBCHEM_CACTVS_TAUTO_COUNT>
2

> <PUBCHEM_CONFORMER_ID>
0364F02300000001

> <PUBCHEM_MMFF94_ENERGY>
98.5416

> <PUBCHEM_FEATURE_SELFOVERLAP>
55.917

> <PUBCHEM_SHAPE_FINGERPRINT>
10 15 18341885325787248800
102385 1 17482281405273127312
10675989 125 17328578424501308437
10835480 77 18336823070883894685
11089746 13 15791736312627085212
11135926 11 18272932687786954727
11315181 36 18260833704674258993
11488393 25 17201377169344332798
11524674 6 17775286092735524839
11646440 116 17418096529370212376
11719270 70 18411132498995006194
11963148 33 18410570708657024098
11991303 11 18340207496291281894
12166972 35 17968382337701308972
12236239 1 17748827419386663728
12596602 18 17967249797969400232
12838862 33 18201422667598267241
13383668 254 16773797035183317659
13402501 40 18412549842597737547
14849402 71 14404606784189555426
15131766 46 17170410761016365204
15183329 4 15285351829986672376
15849732 13 18335421275373634748
173720 79 18408323277108960814
17980427 23 16732994123646982863
18681886 176 18410289250643294456
19489759 90 17676488341660881793
21365058 27 16056884640839026319
21521721 280 17704352195475704952
21623969 137 18131636685646678527
21781051 124 18342471348310589982
22224240 67 17846777416456564930
23559900 14 18409724063302127153
23569914 152 12618031136073771658
23569917 315 18342181016932460630
23569943 247 16127269766866281542
3178227 256 18272096019193226160
397830 11 17915169333543673624
4073 2 18336552608049804331
4325135 7 18187085061683817461
474229 33 18343586248030330898
5104073 3 18057894545342706130
5486654 2 18272091599545258086
57527295 17 17986652802925583405
59755656 215 18202003209716556350
59755656 520 17822005440884229626

> <PUBCHEM_SHAPE_MULTIPOLES>
531.05
20.15
2.3
1.24
10.23
1.25
0.23
-1.28
-1.16
-3.47
0.3
0.24
0.25
1.25

> <PUBCHEM_SHAPE_SELFOVERLAP>
1163.771

> <PUBCHEM_SHAPE_VOLUME>
285.8

> <PUBCHEM_COORDINATE_TYPE>
2
5
10

$$$$