90655528
  -OEChem-03242010103D

 42 43  0     0  0  0  0  0  0999 V2000
    2.7700    0.8014   -1.6221 O   0  0  0  0  0  0  0  0  0  0  0  0
    5.3118   -0.6112   -1.0690 O   0  0  0  0  0  0  0  0  0  0  0  0
    5.9187    0.9086    0.5684 O   0  0  0  0  0  0  0  0  0  0  0  0
   -3.4324   -1.7117   -0.5717 O   0  0  0  0  0  0  0  0  0  0  0  0
    2.1597   -0.2862    2.4314 C   0  0  0  0  0  0  0  0  0  0  0  0
    1.1097   -0.6748    1.3963 C   0  0  0  0  0  0  0  0  0  0  0  0
    3.5692   -0.4851    1.8753 C   0  0  0  0  0  0  0  0  0  0  0  0
    1.2904    0.1168    0.1204 C   0  0  0  0  0  0  0  0  0  0  0  0
    3.7203    0.0206    0.4617 C   0  0  0  0  0  0  0  0  0  0  0  0
    2.6698    0.3176   -0.3331 C   0  0  0  0  0  0  0  0  0  0  0  0
    0.2183    0.6014   -0.5291 C   0  0  0  0  0  0  0  0  0  0  0  0
    5.1155    0.1772    0.0163 C   0  0  0  0  0  0  0  0  0  0  0  0
   -1.1373    0.3749   -0.0923 C   0  0  0  0  0  0  0  0  0  0  0  0
   -2.1991    0.8653   -0.7511 C   0  0  0  0  0  0  0  0  0  0  0  0
   -3.6041    0.6751   -0.3507 C   0  0  0  0  0  0  0  0  0  0  0  0
   -4.1646   -0.5999   -0.2759 C   0  0  0  0  0  0  0  0  0  0  0  0
   -4.3761    1.7955   -0.0436 C   0  0  0  0  0  0  0  0  0  0  0  0
    6.6308   -0.5681   -1.6232 C   0  0  0  0  0  0  0  0  0  0  0  0
   -5.4972   -0.7546    0.1060 C   0  0  0  0  0  0  0  0  0  0  0  0
   -5.7088    1.6408    0.3384 C   0  0  0  0  0  0  0  0  0  0  0  0
   -6.2694    0.3658    0.4131 C   0  0  0  0  0  0  0  0  0  0  0  0
   -4.0952   -2.9694   -0.4655 C   0  0  0  0  0  0  0  0  0  0  0  0
    2.0354   -0.8859    3.3405 H   0  0  0  0  0  0  0  0  0  0  0  0
    2.0231    0.7641    2.7218 H   0  0  0  0  0  0  0  0  0  0  0  0
    1.1960   -1.7450    1.1671 H   0  0  0  0  0  0  0  0  0  0  0  0
    0.1534   -0.5332    1.9001 H   0  0  0  0  0  0  0  0  0  0  0  0
    3.8184   -1.5538    1.8892 H   0  0  0  0  0  0  0  0  0  0  0  0
    4.2791    0.0183    2.5423 H   0  0  0  0  0  0  0  0  0  0  0  0
    0.3398    1.1867   -1.4375 H   0  0  0  0  0  0  0  0  0  0  0  0
   -1.3513   -0.2379    0.7734 H   0  0  0  0  0  0  0  0  0  0  0  0
    3.7104    0.9025   -1.8449 H   0  0  0  0  0  0  0  0  0  0  0  0
   -2.0596    1.4946   -1.6278 H   0  0  0  0  0  0  0  0  0  0  0  0
   -3.9542    2.7963   -0.0964 H   0  0  0  0  0  0  0  0  0  0  0  0
   -6.0030   -1.7103    0.1872 H   0  0  0  0  0  0  0  0  0  0  0  0
    6.6602   -1.2422   -2.4833 H   0  0  0  0  0  0  0  0  0  0  0  0
    7.3634   -0.9082   -0.8849 H   0  0  0  0  0  0  0  0  0  0  0  0
    6.8656    0.4452   -1.9628 H   0  0  0  0  0  0  0  0  0  0  0  0
   -6.3100    2.5131    0.5777 H   0  0  0  0  0  0  0  0  0  0  0  0
   -7.3073    0.2468    0.7106 H   0  0  0  0  0  0  0  0  0  0  0  0
   -3.3657   -3.7403   -0.7356 H   0  0  0  0  0  0  0  0  0  0  0  0
   -4.9218   -3.0534   -1.1794 H   0  0  0  0  0  0  0  0  0  0  0  0
   -4.4070   -3.1773    0.5638 H   0  0  0  0  0  0  0  0  0  0  0  0
  1 10  1  0  0  0  0
  1 31  1  0  0  0  0
  2 12  1  0  0  0  0
  2 18  1  0  0  0  0
  3 12  2  0  0  0  0
  4 16  1  0  0  0  0
  4 22  1  0  0  0  0
  5  6  1  0  0  0  0
  5  7  1  0  0  0  0
  5 23  1  0  0  0  0
  5 24  1  0  0  0  0
  6  8  1  0  0  0  0
  6 25  1  0  0  0  0
  6 26  1  0  0  0  0
  7  9  1  0  0  0  0
  7 27  1  0  0  0  0
  7 28  1  0  0  0  0
  8 10  1  0  0  0  0
  8 11  2  0  0  0  0
  9 10  2  0  0  0  0
  9 12  1  0  0  0  0
 11 13  1  0  0  0  0
 11 29  1  0  0  0  0
 13 14  2  0  0  0  0
 13 30  1  0  0  0  0
 14 15  1  0  0  0  0
 14 32  1  0  0  0  0
 15 16  1  0  0  0  0
 15 17  2  0  0  0  0
 16 19  2  0  0  0  0
 17 20  1  0  0  0  0
 17 33  1  0  0  0  0
 18 35  1  0  0  0  0
 18 36  1  0  0  0  0
 18 37  1  0  0  0  0
 19 21  1  0  0  0  0
 19 34  1  0  0  0  0
 20 21  2  0  0  0  0
 20 38  1  0  0  0  0
 21 39  1  0  0  0  0
 22 40  1  0  0  0  0
 22 41  1  0  0  0  0
 22 42  1  0  0  0  0
M  END
> <PUBCHEM_COMPOUND_CID>
90655528

> <PUBCHEM_CONFORMER_RMSD>
0.8

> <PUBCHEM_CONFORMER_DIVERSEORDER>
4
11
12
13
2
3
19
17
14
16
18
10
15
5
9
7
1
6
8

> <PUBCHEM_MMFF94_PARTIAL_CHARGES>
29
1 -0.53
10 0.08
11 -0.15
12 0.71
13 -0.15
14 -0.18
15 0.03
16 0.08
17 -0.15
18 0.28
19 -0.15
2 -0.43
20 -0.15
21 -0.15
22 0.28
29 0.15
3 -0.57
30 0.15
31 0.45
32 0.15
33 0.15
34 0.15
38 0.15
39 0.15
4 -0.36
6 0.14
7 0.14
8 -0.14
9 -0.12

> <PUBCHEM_EFFECTIVE_ROTOR_COUNT>
5.6

> <PUBCHEM_PHARMACOPHORE_FEATURES>
5
1 1 donor
1 3 acceptor
1 4 acceptor
6 15 16 17 19 20 21 rings
6 5 6 7 8 9 10 rings

> <PUBCHEM_HEAVY_ATOM_COUNT>
22

> <PUBCHEM_ATOM_DEF_STEREO_COUNT>
0

> <PUBCHEM_ATOM_UDEF_STEREO_COUNT>
0

> <PUBCHEM_BOND_DEF_STEREO_COUNT>
2

> <PUBCHEM_BOND_UDEF_STEREO_COUNT>
0

> <PUBCHEM_ISOTOPIC_ATOM_COUNT>
0

> <PUBCHEM_COMPONENT_COUNT>
1

> <PUBCHEM_CACTVS_TAUTO_COUNT>
3

> <PUBCHEM_CONFORMER_ID>
05674B2800000004

> <PUBCHEM_MMFF94_ENERGY>
66.4237

> <PUBCHEM_FEATURE_SELFOVERLAP>
25.372

> <PUBCHEM_SHAPE_FINGERPRINT>
10090160 65 16153704306603260384
10673678 19 17773313659708268704
11045977 3 17775278391869225177
11315181 36 18334858338189076861
11524674 6 17275102821484893951
11545043 162 17846495971771589139
11796584 16 18060702775866824478
12107183 9 16957580149936289193
12236239 1 18040714749304985737
12616971 3 17676490570437464517
12788726 201 18188770535705672329
13167823 11 17967809436334237353
13782708 43 17274817012717499679
14251764 18 17894911803176944849
14341114 176 18059857281083439473
14840074 17 17240483602498893775
14849402 71 17968661656931783684
14933364 13 18272936024728961324
15183329 4 17846223206851391818
15348495 7 17774433992302792986
15537594 2 17894344480208214707
15961568 22 8213840575305655823
17844677 252 18201723963401052584
18681886 176 18409167744456041524
19377110 9 17458333122528068968
19489759 90 17846777404447291345
200 152 17167855357741712053
20645477 70 15502648257286469112
20681677 155 18409728456905412723
21033648 29 16773782672411941113
21267235 1 18335146427583922999
21315759 148 18130502054171894330
21641784 216 15430607130359077870
21792961 116 16773525387218516212
220451 1 18186520986074346634
22224240 67 16443347594284250208
2297311 6 18343867701885821329
23035841 295 18410573963761114698
23522609 53 17678199129855976292
23536379 177 18272934903779082548
23559900 14 18131632278978525709
24771293 8 17968374676065248220
300161 21 17968367983893607953
34797466 226 18271809055570369420
351380 3 17894627054622459523
3545911 37 18202283580960472725
4073 2 18411704322208364694
4325135 7 17022904536111636575
4340502 62 18060126649486261330
542803 24 18040434378024113313
5758199 1 17603307068377850432
59755656 215 18129948879558621334
59755656 520 15482663590333938597
602551 16 18271234027831412155
7495541 125 17632010961734245344
90127 26 17346303930128914649

> <PUBCHEM_SHAPE_MULTIPOLES>
429.27
17.12
1.66
1.51
2.88
0.94
-0.56
-0.44
2.55
-3.21
0.31
2.49
0.31
-0.83

> <PUBCHEM_SHAPE_SELFOVERLAP>
903.353

> <PUBCHEM_SHAPE_VOLUME>
240.5

> <PUBCHEM_COORDINATE_TYPE>
2
5
10

$$$$