90655523
  -OEChem-03242010103D

 41 43  0     0  0  0  0  0  0999 V2000
    2.0308   -2.9089   -0.5262 O   0  0  0  0  0  0  0  0  0  0  0  0
    6.2956    1.8363    0.4400 O   0  0  0  0  0  0  0  0  0  0  0  0
   -5.2838   -1.4866    0.5950 O   0  0  0  0  0  0  0  0  0  0  0  0
    1.4869    0.6285    0.0446 C   0  0  0  0  0  0  0  0  0  0  0  0
    2.9698    0.4110    0.0674 C   0  0  0  0  0  0  0  0  0  0  0  0
    3.3087   -0.9273   -0.1436 C   0  0  0  0  0  0  0  0  0  0  0  0
    0.9468   -0.7559   -0.2088 C   0  0  0  0  0  0  0  0  0  0  0  0
    2.0861   -1.7135   -0.3238 C   0  0  0  0  0  0  0  0  0  0  0  0
    3.9641    1.3539    0.2654 C   0  0  0  0  0  0  0  0  0  0  0  0
    4.6175   -1.3720   -0.1657 C   0  0  0  0  0  0  0  0  0  0  0  0
   -0.3285   -1.1307   -0.3222 C   0  0  0  0  0  0  0  0  0  0  0  0
    5.2966    0.9293    0.2478 C   0  0  0  0  0  0  0  0  0  0  0  0
    5.6201   -0.4223    0.0341 C   0  0  0  0  0  0  0  0  0  0  0  0
   -1.4433   -0.2136   -0.2129 C   0  0  0  0  0  0  0  0  0  0  0  0
   -2.7222   -0.6047   -0.3291 C   0  0  0  0  0  0  0  0  0  0  0  0
   -3.8909    0.2872   -0.2345 C   0  0  0  0  0  0  0  0  0  0  0  0
   -5.1212   -0.1850    0.2223 C   0  0  0  0  0  0  0  0  0  0  0  0
   -3.7527    1.6234   -0.6102 C   0  0  0  0  0  0  0  0  0  0  0  0
    7.6330    1.3420    0.4108 C   0  0  0  0  0  0  0  0  0  0  0  0
   -6.2135    0.6789    0.3034 C   0  0  0  0  0  0  0  0  0  0  0  0
   -4.8449    2.4873   -0.5293 C   0  0  0  0  0  0  0  0  0  0  0  0
   -6.0753    2.0151   -0.0725 C   0  0  0  0  0  0  0  0  0  0  0  0
   -6.5795   -1.8724    1.0479 C   0  0  0  0  0  0  0  0  0  0  0  0
    1.1488    1.0163    1.0107 H   0  0  0  0  0  0  0  0  0  0  0  0
    1.2195    1.3139   -0.7659 H   0  0  0  0  0  0  0  0  0  0  0  0
    3.7158    2.3974    0.4305 H   0  0  0  0  0  0  0  0  0  0  0  0
    4.8638   -2.4147   -0.3306 H   0  0  0  0  0  0  0  0  0  0  0  0
   -0.5673   -2.1753   -0.5074 H   0  0  0  0  0  0  0  0  0  0  0  0
    6.6373   -0.7992    0.0117 H   0  0  0  0  0  0  0  0  0  0  0  0
   -1.2027    0.8261   -0.0123 H   0  0  0  0  0  0  0  0  0  0  0  0
   -2.9460   -1.6548   -0.5059 H   0  0  0  0  0  0  0  0  0  0  0  0
   -2.8180    2.0258   -0.9912 H   0  0  0  0  0  0  0  0  0  0  0  0
   -7.1997    0.3872    0.6472 H   0  0  0  0  0  0  0  0  0  0  0  0
    8.2963    2.1966    0.5807 H   0  0  0  0  0  0  0  0  0  0  0  0
    7.8898    0.9308   -0.5714 H   0  0  0  0  0  0  0  0  0  0  0  0
    7.8178    0.6300    1.2223 H   0  0  0  0  0  0  0  0  0  0  0  0
   -4.7391    3.5267   -0.8265 H   0  0  0  0  0  0  0  0  0  0  0  0
   -6.9252    2.6886   -0.0110 H   0  0  0  0  0  0  0  0  0  0  0  0
   -6.5269   -2.9363    1.3022 H   0  0  0  0  0  0  0  0  0  0  0  0
   -7.3310   -1.7740    0.2571 H   0  0  0  0  0  0  0  0  0  0  0  0
   -6.8627   -1.3429    1.9641 H   0  0  0  0  0  0  0  0  0  0  0  0
  1  8  2  0  0  0  0
  2 12  1  0  0  0  0
  2 19  1  0  0  0  0
  3 17  1  0  0  0  0
  3 23  1  0  0  0  0
  4  5  1  0  0  0  0
  4  7  1  0  0  0  0
  4 24  1  0  0  0  0
  4 25  1  0  0  0  0
  5  6  2  0  0  0  0
  5  9  1  0  0  0  0
  6  8  1  0  0  0  0
  6 10  1  0  0  0  0
  7  8  1  0  0  0  0
  7 11  2  0  0  0  0
  9 12  2  0  0  0  0
  9 26  1  0  0  0  0
 10 13  2  0  0  0  0
 10 27  1  0  0  0  0
 11 14  1  0  0  0  0
 11 28  1  0  0  0  0
 12 13  1  0  0  0  0
 13 29  1  0  0  0  0
 14 15  2  0  0  0  0
 14 30  1  0  0  0  0
 15 16  1  0  0  0  0
 15 31  1  0  0  0  0
 16 17  1  0  0  0  0
 16 18  2  0  0  0  0
 17 20  2  0  0  0  0
 18 21  1  0  0  0  0
 18 32  1  0  0  0  0
 19 34  1  0  0  0  0
 19 35  1  0  0  0  0
 19 36  1  0  0  0  0
 20 22  1  0  0  0  0
 20 33  1  0  0  0  0
 21 22  2  0  0  0  0
 21 37  1  0  0  0  0
 22 38  1  0  0  0  0
 23 39  1  0  0  0  0
 23 40  1  0  0  0  0
 23 41  1  0  0  0  0
M  END
> <PUBCHEM_COMPOUND_CID>
90655523

> <PUBCHEM_CONFORMER_RMSD>
0.8

> <PUBCHEM_CONFORMER_DIVERSEORDER>
5
11
1
7
4
9
12
2
8
13
3
10
6

> <PUBCHEM_MMFF94_PARTIAL_CHARGES>
33
1 -0.57
10 -0.15
11 -0.15
12 0.08
13 -0.15
14 -0.15
15 -0.18
16 0.03
17 0.08
18 -0.15
19 0.28
2 -0.36
20 -0.15
21 -0.15
22 -0.15
23 0.28
26 0.15
27 0.15
28 0.15
29 0.15
3 -0.36
30 0.15
31 0.15
32 0.15
33 0.15
37 0.15
38 0.15
4 0.28
5 -0.14
6 0.09
7 -0.12
8 0.47
9 -0.15

> <PUBCHEM_EFFECTIVE_ROTOR_COUNT>
4.2

> <PUBCHEM_PHARMACOPHORE_FEATURES>
6
1 1 acceptor
1 2 acceptor
1 3 acceptor
5 4 5 6 7 8 rings
6 16 17 18 20 21 22 rings
6 5 6 9 10 12 13 rings

> <PUBCHEM_HEAVY_ATOM_COUNT>
23

> <PUBCHEM_ATOM_DEF_STEREO_COUNT>
0

> <PUBCHEM_ATOM_UDEF_STEREO_COUNT>
0

> <PUBCHEM_BOND_DEF_STEREO_COUNT>
2

> <PUBCHEM_BOND_UDEF_STEREO_COUNT>
0

> <PUBCHEM_ISOTOPIC_ATOM_COUNT>
0

> <PUBCHEM_COMPONENT_COUNT>
1

> <PUBCHEM_CACTVS_TAUTO_COUNT>
1

> <PUBCHEM_CONFORMER_ID>
05674B2300000005

> <PUBCHEM_MMFF94_ENERGY>
82.705

> <PUBCHEM_FEATURE_SELFOVERLAP>
30.53

> <PUBCHEM_SHAPE_FINGERPRINT>
10 15 18335701662884621898
10411042 1 17765436440590156142
10595046 47 18272083869131607111
10835480 77 18338794520960135021
11315181 36 17676769851313562389
12236239 1 17846497023737798982
12596602 18 18259982656503143137
12730499 353 18342181059670571558
13073987 5 18260546706026512923
13167372 99 18341329994499200584
13402501 40 18409164398492200421
13403585 85 18407479964501336297
13533116 47 14404916747852878748
13668630 136 8070034380572912256
13785724 45 17762896568271037986
14251732 16 18408323310898915347
14251764 18 18113615712122385048
14341114 176 18337397045986287269
14461889 52 18334013925690355138
14849402 71 17969227909467012532
14933364 13 18411702084139733984
15183329 4 15123790677853957988
15419008 145 18188758454543014888
15475509 35 16661192639384836562
17844677 252 18409738352578679709
18608769 82 18411701032490009723
19489759 90 17676207966427595609
19611394 137 17970358215909073745
20281389 69 18335700516128665436
21033648 29 18271231794321564793
21130935 74 18260829271967543930
23081809 10 15338839729151174631
23559900 14 18123750846993719023
2838139 119 18272079548342104140
2916195 48 18335700533440072155
335352 9 18342176662288406742
3545911 37 18342739615318099847
3663271 9 18040994029321183259
4073 2 18187089455229996995
4214541 1 18336266752470176237
4325135 7 18272929462503944351
4340502 62 17240195535385505666
5104073 3 18262521386392732275
59682541 35 18337397144992231187
59682541 52 17131567076801637020
9995097 60 18412263904764669991

> <PUBCHEM_SHAPE_MULTIPOLES>
455.72
20.51
2.42
0.75
0.03
0.11
-0.04
-7.39
-4.04
-1.07
0.09
-0.38
0.07
1.89

> <PUBCHEM_SHAPE_SELFOVERLAP>
991.714

> <PUBCHEM_SHAPE_VOLUME>
250.7

> <PUBCHEM_COORDINATE_TYPE>
2
5
10

$$$$