46505770
  -OEChem-03242010103D

 42 45  0     0  0  0  0  0  0999 V2000
   -1.7922    2.5755    0.9304 O   0  0  0  0  0  0  0  0  0  0  0  0
   -6.3558   -1.6503   -0.2988 O   0  0  0  0  0  0  0  0  0  0  0  0
   -1.4662   -1.3345   -0.4309 C   0  0  0  0  0  0  0  0  0  0  0  0
   -0.4543   -0.3112   -0.9335 C   0  0  0  0  0  0  0  0  0  0  0  0
   -2.8135   -0.6996   -0.2128 C   0  0  0  0  0  0  0  0  0  0  0  0
   -0.4104    0.8814   -0.0275 C   0  0  0  0  0  0  0  0  0  0  0  0
   -2.9244    0.6388    0.1991 C   0  0  0  0  0  0  0  0  0  0  0  0
   -1.7100    1.4669    0.4157 C   0  0  0  0  0  0  0  0  0  0  0  0
    0.7272    1.4432    0.4025 C   0  0  0  0  0  0  0  0  0  0  0  0
   -3.9776   -1.4643   -0.3669 C   0  0  0  0  0  0  0  0  0  0  0  0
   -4.1849    1.2023    0.4323 C   0  0  0  0  0  0  0  0  0  0  0  0
    2.0876    0.9960    0.0641 C   0  0  0  0  0  0  0  0  0  0  0  0
   -5.2320   -0.8989   -0.1376 C   0  0  0  0  0  0  0  0  0  0  0  0
   -5.3351    0.4325    0.2591 C   0  0  0  0  0  0  0  0  0  0  0  0
    2.7232    0.0369    0.8533 C   0  0  0  0  0  0  0  0  0  0  0  0
    4.0218   -0.3992    0.5441 C   0  0  0  0  0  0  0  0  0  0  0  0
    4.6851    0.1449   -0.5815 C   0  0  0  0  0  0  0  0  0  0  0  0
    2.7398    1.5311   -1.0428 C   0  0  0  0  0  0  0  0  0  0  0  0
    4.0301    1.1093   -1.3647 C   0  0  0  0  0  0  0  0  0  0  0  0
    4.6769   -1.3635    1.3274 C   0  0  0  0  0  0  0  0  0  0  0  0
    5.9838   -0.2912   -0.8906 C   0  0  0  0  0  0  0  0  0  0  0  0
    5.9672   -1.7852    1.0056 C   0  0  0  0  0  0  0  0  0  0  0  0
    6.6195   -1.2501   -0.1013 C   0  0  0  0  0  0  0  0  0  0  0  0
   -7.6057   -1.0109   -0.0449 C   0  0  0  0  0  0  0  0  0  0  0  0
   -1.5434   -2.1432   -1.1676 H   0  0  0  0  0  0  0  0  0  0  0  0
   -1.1281   -1.7775    0.5142 H   0  0  0  0  0  0  0  0  0  0  0  0
    0.5157   -0.8080   -1.0365 H   0  0  0  0  0  0  0  0  0  0  0  0
   -0.7399    0.0280   -1.9383 H   0  0  0  0  0  0  0  0  0  0  0  0
    0.7079    2.3069    1.0634 H   0  0  0  0  0  0  0  0  0  0  0  0
   -3.9076   -2.5071   -0.6682 H   0  0  0  0  0  0  0  0  0  0  0  0
   -4.2902    2.2366    0.7491 H   0  0  0  0  0  0  0  0  0  0  0  0
   -6.2775    0.9328    0.4549 H   0  0  0  0  0  0  0  0  0  0  0  0
    2.2064   -0.3773    1.7182 H   0  0  0  0  0  0  0  0  0  0  0  0
    2.2570    2.2794   -1.6668 H   0  0  0  0  0  0  0  0  0  0  0  0
    4.5209    1.5411   -2.2344 H   0  0  0  0  0  0  0  0  0  0  0  0
    4.1863   -1.7956    2.1972 H   0  0  0  0  0  0  0  0  0  0  0  0
    6.5127    0.1134   -1.7511 H   0  0  0  0  0  0  0  0  0  0  0  0
    6.4626   -2.5317    1.6196 H   0  0  0  0  0  0  0  0  0  0  0  0
    7.6241   -1.5788   -0.3512 H   0  0  0  0  0  0  0  0  0  0  0  0
   -7.6923   -0.6972    1.0010 H   0  0  0  0  0  0  0  0  0  0  0  0
   -7.7846   -0.1854   -0.7422 H   0  0  0  0  0  0  0  0  0  0  0  0
   -8.3905   -1.7538   -0.2214 H   0  0  0  0  0  0  0  0  0  0  0  0
  1  8  2  0  0  0  0
  2 13  1  0  0  0  0
  2 24  1  0  0  0  0
  3  4  1  0  0  0  0
  3  5  1  0  0  0  0
  3 25  1  0  0  0  0
  3 26  1  0  0  0  0
  4  6  1  0  0  0  0
  4 27  1  0  0  0  0
  4 28  1  0  0  0  0
  5  7  2  0  0  0  0
  5 10  1  0  0  0  0
  6  8  1  0  0  0  0
  6  9  2  0  0  0  0
  7  8  1  0  0  0  0
  7 11  1  0  0  0  0
  9 12  1  0  0  0  0
  9 29  1  0  0  0  0
 10 13  2  0  0  0  0
 10 30  1  0  0  0  0
 11 14  2  0  0  0  0
 11 31  1  0  0  0  0
 12 15  2  0  0  0  0
 12 18  1  0  0  0  0
 13 14  1  0  0  0  0
 14 32  1  0  0  0  0
 15 16  1  0  0  0  0
 15 33  1  0  0  0  0
 16 17  1  0  0  0  0
 16 20  2  0  0  0  0
 17 19  1  0  0  0  0
 17 21  2  0  0  0  0
 18 19  2  0  0  0  0
 18 34  1  0  0  0  0
 19 35  1  0  0  0  0
 20 22  1  0  0  0  0
 20 36  1  0  0  0  0
 21 23  1  0  0  0  0
 21 37  1  0  0  0  0
 22 23  2  0  0  0  0
 22 38  1  0  0  0  0
 23 39  1  0  0  0  0
 24 40  1  0  0  0  0
 24 41  1  0  0  0  0
 24 42  1  0  0  0  0
M  END
> <PUBCHEM_COMPOUND_CID>
46505770

> <PUBCHEM_CONFORMER_RMSD>
0.6

> <PUBCHEM_CONFORMER_DIVERSEORDER>
1
8
6
7
3
5
2
4

> <PUBCHEM_MMFF94_PARTIAL_CHARGES>
33
1 -0.57
10 -0.15
11 -0.15
12 0.03
13 0.08
14 -0.15
15 -0.15
18 -0.15
19 -0.15
2 -0.36
20 -0.15
21 -0.15
22 -0.15
23 -0.15
24 0.28
29 0.15
3 0.14
30 0.15
31 0.15
32 0.15
33 0.15
34 0.15
35 0.15
36 0.15
37 0.15
38 0.15
39 0.15
4 0.14
5 -0.14
6 -0.12
7 0.09
8 0.47
9 -0.18

> <PUBCHEM_EFFECTIVE_ROTOR_COUNT>
2.4

> <PUBCHEM_PHARMACOPHORE_FEATURES>
6
1 1 acceptor
1 2 acceptor
6 12 15 16 17 18 19 rings
6 16 17 20 21 22 23 rings
6 3 4 5 6 7 8 rings
6 5 7 10 11 13 14 rings

> <PUBCHEM_HEAVY_ATOM_COUNT>
24

> <PUBCHEM_ATOM_DEF_STEREO_COUNT>
0

> <PUBCHEM_ATOM_UDEF_STEREO_COUNT>
0

> <PUBCHEM_BOND_DEF_STEREO_COUNT>
1

> <PUBCHEM_BOND_UDEF_STEREO_COUNT>
0

> <PUBCHEM_ISOTOPIC_ATOM_COUNT>
0

> <PUBCHEM_COMPONENT_COUNT>
1

> <PUBCHEM_CACTVS_TAUTO_COUNT>
1

> <PUBCHEM_CONFORMER_ID>
02C59F2A00000001

> <PUBCHEM_MMFF94_ENERGY>
81.4349

> <PUBCHEM_FEATURE_SELFOVERLAP>
30.497

> <PUBCHEM_SHAPE_FINGERPRINT>
10 15 16630519653139490362
10299344 5 18333734610860368275
10595046 47 18335144185374078972
11524674 6 16702301265501167023
11578080 2 17315340433377752431
11646440 116 16630529543885028122
11963148 33 18272364304442604527
12107183 9 17615123287580814880
12166972 35 18186803608071537677
12236239 1 18334861602042422924
125118 31 11023842668957945203
12516196 113 18130786767959933248
12760667 363 18412543223899939003
12788726 201 18342750606245217576
13288520 33 18413671314393037833
13533116 47 18334857251214093840
13668630 136 18333732407616134998
13685833 64 18343582957916473330
13862211 1 18272931661432189167
13914758 101 17967247569066106701
14251752 14 18187640272106340357
14251764 18 18342460365155508589
14347332 77 18261107435397478556
15048467 5 9367348132842116187
15183329 4 18040715857206016539
15188451 53 18273491264920297568
15348495 7 16128082451138807786
17134984 74 17168142360373163930
17349148 13 18413110567161773285
17857418 61 18408604747331573144
1813 80 18113625564376611588
18681886 176 18412544328065269208
19784866 240 18259704480351374614
20028762 73 18272651259601957382
21033648 29 15912752878974861696
21150785 3 15140961781679548379
21267235 1 18411985780194746515
21792934 111 18202556290146770849
22061861 79 16950280710775919974
221357 26 16732698346613747356
2215653 11 15647053767628675918
22224240 67 14908180854963746269
22956985 138 17841163155905065510
23035841 295 18412266142780215267
23522609 53 18193588659677297157
23559900 14 18340481287334018721
23569914 152 15291212089466398403
29717793 49 18259707791839848796
3004659 81 18334012804772052692
335352 9 18342455955268763061
3383291 50 18341610447443240611
3411729 13 17487606649699022320
34797466 226 17418100949435242124
351380 3 18408038498901511682
3633792 109 17821443560604089581
397830 11 13973676299805879375
46194498 28 16443066123523308294
465052 167 18340773735835664799
5104073 3 18131356357716451921
54039377 194 18041839494794794442
542803 24 11024106542915407908
559249 180 18411134710981732609
59682541 52 14779534657171417088
59755656 215 18273217473661672639
6138700 20 18412826880878414923
86090 222 16199055892720977980

> <PUBCHEM_SHAPE_MULTIPOLES>
482.17
18.16
1.96
1.05
5.5
0.26
0.02
-10.06
0.34
0.19
-0.25
-1.12
0.06
-1.84

> <PUBCHEM_SHAPE_SELFOVERLAP>
1074.558

> <PUBCHEM_SHAPE_VOLUME>
256.5

> <PUBCHEM_COORDINATE_TYPE>
2
5
10

$$$$