787509
  -OEChem-03242010103D

 41 44  0     0  0  0  0  0  0999 V2000
    4.0940    1.3087   -1.5329 O   0  0  0  0  0  0  0  0  0  0  0  0
    1.1078   -1.7776    0.6466 N   0  0  0  0  0  0  0  0  0  0  0  0
   -0.2981    0.0957    0.4217 N   0  0  0  0  0  0  0  0  0  0  0  0
   -2.6124   -0.1712   -0.1946 N   0  0  0  0  0  0  0  0  0  0  0  0
   -3.1685    3.8693    0.6106 N   0  0  0  0  0  0  0  0  0  0  0  0
   -1.2126   -2.1061    0.0241 C   0  0  0  0  0  0  0  0  0  0  0  0
   -0.1719   -1.2431    0.3558 C   0  0  0  0  0  0  0  0  0  0  0  0
   -2.4516   -1.5048   -0.2511 C   0  0  0  0  0  0  0  0  0  0  0  0
   -1.5270    0.5566    0.1386 C   0  0  0  0  0  0  0  0  0  0  0  0
    2.3357   -1.1464    0.5693 C   0  0  0  0  0  0  0  0  0  0  0  0
   -1.0562   -3.5017   -0.0382 C   0  0  0  0  0  0  0  0  0  0  0  0
   -3.5172   -2.3363   -0.5870 C   0  0  0  0  0  0  0  0  0  0  0  0
   -1.7070    1.9837    0.1972 C   0  0  0  0  0  0  0  0  0  0  0  0
   -2.1379   -4.3088   -0.3764 C   0  0  0  0  0  0  0  0  0  0  0  0
   -3.3696   -3.7251   -0.6512 C   0  0  0  0  0  0  0  0  0  0  0  0
    2.6113   -0.2204   -0.4563 C   0  0  0  0  0  0  0  0  0  0  0  0
    3.3473   -1.4095    1.5140 C   0  0  0  0  0  0  0  0  0  0  0  0
    3.8493    0.4173   -0.5339 C   0  0  0  0  0  0  0  0  0  0  0  0
    4.5854   -0.7717    1.4362 C   0  0  0  0  0  0  0  0  0  0  0  0
    4.8364    0.1417    0.4122 C   0  0  0  0  0  0  0  0  0  0  0  0
   -0.6582    2.8554   -0.0850 C   0  0  0  0  0  0  0  0  0  0  0  0
   -2.9321    2.5403    0.5370 C   0  0  0  0  0  0  0  0  0  0  0  0
   -0.8625    4.2292   -0.0200 C   0  0  0  0  0  0  0  0  0  0  0  0
   -2.1249    4.6813    0.3293 C   0  0  0  0  0  0  0  0  0  0  0  0
    3.0405    1.5435   -2.4662 C   0  0  0  0  0  0  0  0  0  0  0  0
    1.0844   -2.5951    1.2477 H   0  0  0  0  0  0  0  0  0  0  0  0
   -0.1061   -3.9887    0.1623 H   0  0  0  0  0  0  0  0  0  0  0  0
   -4.4917   -1.9043   -0.8066 H   0  0  0  0  0  0  0  0  0  0  0  0
   -2.0209   -5.3869   -0.4276 H   0  0  0  0  0  0  0  0  0  0  0  0
    1.8287   -0.0504   -1.1886 H   0  0  0  0  0  0  0  0  0  0  0  0
   -4.2192   -4.3477   -0.9166 H   0  0  0  0  0  0  0  0  0  0  0  0
    3.1688   -2.1181    2.3199 H   0  0  0  0  0  0  0  0  0  0  0  0
    5.3540   -0.9859    2.1730 H   0  0  0  0  0  0  0  0  0  0  0  0
    5.8027    0.6354    0.3570 H   0  0  0  0  0  0  0  0  0  0  0  0
    0.3268    2.4907   -0.3635 H   0  0  0  0  0  0  0  0  0  0  0  0
   -3.7969    1.9292    0.7798 H   0  0  0  0  0  0  0  0  0  0  0  0
   -0.0596    4.9243   -0.2373 H   0  0  0  0  0  0  0  0  0  0  0  0
   -2.3362    5.7436    0.3936 H   0  0  0  0  0  0  0  0  0  0  0  0
    2.1623    1.9826   -1.9820 H   0  0  0  0  0  0  0  0  0  0  0  0
    2.7958    0.6392   -3.0338 H   0  0  0  0  0  0  0  0  0  0  0  0
    3.4077    2.2814   -3.1872 H   0  0  0  0  0  0  0  0  0  0  0  0
  1 18  1  0  0  0  0
  1 25  1  0  0  0  0
  2  7  1  0  0  0  0
  2 10  1  0  0  0  0
  2 26  1  0  0  0  0
  3  7  2  0  0  0  0
  3  9  1  0  0  0  0
  4  8  1  0  0  0  0
  4  9  2  0  0  0  0
  5 22  1  0  0  0  0
  5 24  2  0  0  0  0
  6  7  1  0  0  0  0
  6  8  1  0  0  0  0
  6 11  2  0  0  0  0
  8 12  2  0  0  0  0
  9 13  1  0  0  0  0
 10 16  2  0  0  0  0
 10 17  1  0  0  0  0
 11 14  1  0  0  0  0
 11 27  1  0  0  0  0
 12 15  1  0  0  0  0
 12 28  1  0  0  0  0
 13 21  1  0  0  0  0
 13 22  2  0  0  0  0
 14 15  2  0  0  0  0
 14 29  1  0  0  0  0
 15 31  1  0  0  0  0
 16 18  1  0  0  0  0
 16 30  1  0  0  0  0
 17 19  2  0  0  0  0
 17 32  1  0  0  0  0
 18 20  2  0  0  0  0
 19 20  1  0  0  0  0
 19 33  1  0  0  0  0
 20 34  1  0  0  0  0
 21 23  2  0  0  0  0
 21 35  1  0  0  0  0
 22 36  1  0  0  0  0
 23 24  1  0  0  0  0
 23 37  1  0  0  0  0
 24 38  1  0  0  0  0
 25 39  1  0  0  0  0
 25 40  1  0  0  0  0
 25 41  1  0  0  0  0
M  END
> <PUBCHEM_COMPOUND_CID>
787509

> <PUBCHEM_CONFORMER_RMSD>
0.8

> <PUBCHEM_CONFORMER_DIVERSEORDER>
1
42
36
17
12
43
10
22
33
29
41
20
32
38
21
9
44
35
2
15
11
19
34
30
40
26
31
18
27
39
6
16
13
37
28
25
14
24
5
3
4
8
23
7

> <PUBCHEM_MMFF94_PARTIAL_CHARGES>
36
1 -0.36
10 0.1
11 -0.15
12 -0.15
14 -0.15
15 -0.15
16 -0.15
17 -0.15
18 0.08
19 -0.15
2 -0.6
20 -0.15
21 -0.15
22 0.16
23 -0.15
24 0.16
25 0.28
26 0.4
27 0.15
28 0.15
29 0.15
3 -0.62
30 0.15
31 0.15
32 0.15
33 0.15
34 0.15
35 0.15
36 0.15
37 0.15
38 0.15
4 -0.62
5 -0.62
7 0.41
8 0.31
9 0.62

> <PUBCHEM_EFFECTIVE_ROTOR_COUNT>
4

> <PUBCHEM_PHARMACOPHORE_FEATURES>
9
1 1 acceptor
1 2 donor
1 5 acceptor
3 2 3 7 cation
3 3 4 9 cation
6 10 16 17 18 19 20 rings
6 3 4 6 7 8 9 rings
6 5 13 21 22 23 24 rings
6 6 8 11 12 14 15 rings

> <PUBCHEM_HEAVY_ATOM_COUNT>
25

> <PUBCHEM_ATOM_DEF_STEREO_COUNT>
0

> <PUBCHEM_ATOM_UDEF_STEREO_COUNT>
0

> <PUBCHEM_BOND_DEF_STEREO_COUNT>
0

> <PUBCHEM_BOND_UDEF_STEREO_COUNT>
0

> <PUBCHEM_ISOTOPIC_ATOM_COUNT>
0

> <PUBCHEM_COMPONENT_COUNT>
1

> <PUBCHEM_CACTVS_TAUTO_COUNT>
3

> <PUBCHEM_CONFORMER_ID>
000C043500000001

> <PUBCHEM_MMFF94_ENERGY>
99.8974

> <PUBCHEM_FEATURE_SELFOVERLAP>
45.844

> <PUBCHEM_SHAPE_FINGERPRINT>
10411042 1 18195518423006353475
10871710 139 18264225736283772644
10937287 8 18052534366059631273
10940486 97 18264779749254439158
1100329 8 18339079406288201441
11578080 2 17319537526346893287
11833330 49 18339348786046273643
12107183 9 17832126248725197010
12173636 292 18268422434870107725
12293681 160 17539140849665039268
12553582 1 18267589194061707843
12788726 201 18336556013426360251
13009979 54 18260537957737423706
13140716 1 18265610068805076171
138480 1 16250815041631277369
13955234 65 17116355066573755633
13965767 371 17612577935590341352
14178342 30 18264468634523971346
14790565 3 18340494353167975353
14955137 171 17976569374322520803
15230672 131 16101629614636243844
15420108 30 17759502388665296594
15475509 8 17913521118707204463
15664445 248 17838071646818508638
15842332 3 18113903749840843910
15961568 22 17908411799863178320
16992727 255 18192403335588618869
17818456 19 18336818689842945386
1813 80 17914059964766109807
1979834 28 17543362557113956569
19930381 70 17545596111884813312
20101258 96 18266184009500368515
20642791 239 17974578201576361531
20642791 35 18051986006236519933
21033648 29 17909811155968599568
21033650 10 18336565867041413634
21049683 271 17610904869671885399
2132832 1 18115008823498689032
23366157 5 17398097739731664543
23557571 272 18131071528560023898
23558518 356 18263362508029517178
23559900 14 17691390228926949355
23598288 3 18262250966123692971
3091708 16 9635718060410264131
352729 6 18194117422069837147
3610482 184 17682159644581137028
38570 142 17316520295475059748
532947 4 17186442889208077189
6287921 2 17473832727623363149
6700243 42 17842587259685567582
7064713 232 18121491363509791760
7164475 11 18410291437024214990
7808743 9 18339358566209189056
9981440 41 17978504239819400633

> <PUBCHEM_SHAPE_MULTIPOLES>
488.69
7.94
6.43
1.25
9.06
4.76
-0.53
-2.35
-0.32
-9.37
0.2
1.73
0.21
-2.62

> <PUBCHEM_SHAPE_SELFOVERLAP>
1088.832

> <PUBCHEM_SHAPE_VOLUME>
256.5

> <PUBCHEM_COORDINATE_TYPE>
2
5
10

$$$$