118737173
  -OEChem-03242010103D

 48 51  0     0  0  0  0  0  0999 V2000
    5.5783    0.7983    1.6861 F   0  0  0  0  0  0  0  0  0  0  0  0
    5.3361   -0.3702   -0.1248 F   0  0  0  0  0  0  0  0  0  0  0  0
    6.0209    1.6899   -0.2471 F   0  0  0  0  0  0  0  0  0  0  0  0
    0.4010   -1.4489   -1.1913 O   0  0  0  0  0  0  0  0  0  0  0  0
   -0.4968    3.9234   -0.2055 O   0  0  0  0  0  0  0  0  0  0  0  0
   -1.2882    1.7216    0.0199 N   0  0  0  0  0  0  0  0  0  0  0  0
   -1.8637   -2.2286    0.2776 N   0  0  0  0  0  0  0  0  0  0  0  0
   -1.8458   -0.9677   -0.1769 N   0  0  0  0  0  0  0  0  0  0  0  0
   -3.7091   -1.4998    0.9946 N   0  0  0  0  0  0  0  0  0  0  0  0
   -2.9488   -2.5877    0.9776 N   0  0  0  0  0  0  0  0  0  0  0  0
   -3.5337    0.7801    0.0985 C   0  0  0  0  0  0  0  0  0  0  0  0
   -2.6776    1.8734   -0.0338 C   0  0  0  0  0  0  0  0  0  0  0  0
   -3.0226   -0.5509    0.2970 C   0  0  0  0  0  0  0  0  0  0  0  0
    1.0926    2.2445    0.0538 C   0  0  0  0  0  0  0  0  0  0  0  0
   -4.9150    0.9647    0.0395 C   0  0  0  0  0  0  0  0  0  0  0  0
   -0.8187   -3.1129    0.0389 C   0  0  0  0  0  0  0  0  0  0  0  0
   -3.2029    3.1513   -0.2253 C   0  0  0  0  0  0  0  0  0  0  0  0
   -0.3110    2.7192   -0.0659 C   0  0  0  0  0  0  0  0  0  0  0  0
    3.7264    1.3528    0.2770 C   0  0  0  0  0  0  0  0  0  0  0  0
   -5.4402    2.2427   -0.1519 C   0  0  0  0  0  0  0  0  0  0  0  0
   -4.5843    3.3360   -0.2843 C   0  0  0  0  0  0  0  0  0  0  0  0
    2.1255    2.9632   -0.5482 C   0  0  0  0  0  0  0  0  0  0  0  0
    1.3765    1.0803    0.7674 C   0  0  0  0  0  0  0  0  0  0  0  0
    0.3003   -2.7136   -0.6917 C   0  0  0  0  0  0  0  0  0  0  0  0
    3.4425    2.5173   -0.4366 C   0  0  0  0  0  0  0  0  0  0  0  0
    2.6934    0.6344    0.8790 C   0  0  0  0  0  0  0  0  0  0  0  0
   -0.8976   -4.4125    0.5392 C   0  0  0  0  0  0  0  0  0  0  0  0
    1.3406   -3.6138   -0.9219 C   0  0  0  0  0  0  0  0  0  0  0  0
    5.1345    0.8758    0.3967 C   0  0  0  0  0  0  0  0  0  0  0  0
    0.1426   -5.3130    0.3089 C   0  0  0  0  0  0  0  0  0  0  0  0
    1.2617   -4.9137   -0.4216 C   0  0  0  0  0  0  0  0  0  0  0  0
    1.5830   -1.1356   -1.9246 C   0  0  0  0  0  0  0  0  0  0  0  0
   -0.9667    0.7641    0.1050 H   0  0  0  0  0  0  0  0  0  0  0  0
   -5.6046    0.1293    0.1341 H   0  0  0  0  0  0  0  0  0  0  0  0
   -2.6188    4.0514   -0.3442 H   0  0  0  0  0  0  0  0  0  0  0  0
   -6.5157    2.3865   -0.1996 H   0  0  0  0  0  0  0  0  0  0  0  0
    1.9242    3.8696   -1.1131 H   0  0  0  0  0  0  0  0  0  0  0  0
    0.6122    0.5098    1.2861 H   0  0  0  0  0  0  0  0  0  0  0  0
   -4.9950    4.3302   -0.4351 H   0  0  0  0  0  0  0  0  0  0  0  0
    4.2324    3.0905   -0.9139 H   0  0  0  0  0  0  0  0  0  0  0  0
    2.9060   -0.2700    1.4430 H   0  0  0  0  0  0  0  0  0  0  0  0
   -1.7507   -4.7649    1.1131 H   0  0  0  0  0  0  0  0  0  0  0  0
    2.2391   -3.3797   -1.4819 H   0  0  0  0  0  0  0  0  0  0  0  0
    0.0816   -6.3251    0.6981 H   0  0  0  0  0  0  0  0  0  0  0  0
    2.0707   -5.6160   -0.6009 H   0  0  0  0  0  0  0  0  0  0  0  0
    1.5077   -0.0869   -2.2296 H   0  0  0  0  0  0  0  0  0  0  0  0
    1.6470   -1.7253   -2.8458 H   0  0  0  0  0  0  0  0  0  0  0  0
    2.4865   -1.2312   -1.3147 H   0  0  0  0  0  0  0  0  0  0  0  0
  1 29  1  0  0  0  0
  2 29  1  0  0  0  0
  3 29  1  0  0  0  0
  4 24  1  0  0  0  0
  4 32  1  0  0  0  0
  5 18  2  0  0  0  0
  6 12  1  0  0  0  0
  6 18  1  0  0  0  0
  6 33  1  0  0  0  0
  7  8  1  0  0  0  0
  7 10  1  0  0  0  0
  7 16  1  0  0  0  0
  8 13  2  0  0  0  0
  9 10  2  0  0  0  0
  9 13  1  0  0  0  0
 11 12  1  0  0  0  0
 11 13  1  0  0  0  0
 11 15  2  0  0  0  0
 12 17  2  0  0  0  0
 14 18  1  0  0  0  0
 14 22  2  0  0  0  0
 14 23  1  0  0  0  0
 15 20  1  0  0  0  0
 15 34  1  0  0  0  0
 16 24  1  0  0  0  0
 16 27  2  0  0  0  0
 17 21  1  0  0  0  0
 17 35  1  0  0  0  0
 19 25  2  0  0  0  0
 19 26  1  0  0  0  0
 19 29  1  0  0  0  0
 20 21  2  0  0  0  0
 20 36  1  0  0  0  0
 21 39  1  0  0  0  0
 22 25  1  0  0  0  0
 22 37  1  0  0  0  0
 23 26  2  0  0  0  0
 23 38  1  0  0  0  0
 24 28  2  0  0  0  0
 25 40  1  0  0  0  0
 26 41  1  0  0  0  0
 27 30  1  0  0  0  0
 27 42  1  0  0  0  0
 28 31  1  0  0  0  0
 28 43  1  0  0  0  0
 30 31  2  0  0  0  0
 30 44  1  0  0  0  0
 31 45  1  0  0  0  0
 32 46  1  0  0  0  0
 32 47  1  0  0  0  0
 32 48  1  0  0  0  0
M  END
> <PUBCHEM_COMPOUND_CID>
118737173

> <PUBCHEM_CONFORMER_RMSD>
1

> <PUBCHEM_CONFORMER_DIVERSEORDER>
1
18
28
25
9
38
21
35
30
34
17
37
26
3
15
8
5
24
16
36
23
29
12
22
31
10
11
6
33
32
14
27
20
7
19
13
4
2

> <PUBCHEM_MMFF94_PARTIAL_CHARGES>
45
1 -0.34
10 -0.42
11 0.05
12 0.12
13 0.46
14 0.09
15 -0.15
16 -0.02
17 -0.15
18 0.54
19 -0.14
2 -0.34
20 -0.15
21 -0.15
22 -0.15
23 -0.15
24 0.08
25 -0.15
26 -0.15
27 -0.15
28 -0.15
29 1.16
3 -0.34
30 -0.15
31 -0.15
32 0.28
33 0.37
34 0.15
35 0.15
36 0.15
37 0.15
38 0.15
39 0.15
4 -0.36
40 0.15
41 0.15
42 0.15
43 0.15
44 0.15
45 0.15
5 -0.57
6 -0.55
7 0.86
8 -0.71
9 -0.23

> <PUBCHEM_EFFECTIVE_ROTOR_COUNT>
7

> <PUBCHEM_PHARMACOPHORE_FEATURES>
8
1 4 acceptor
1 5 acceptor
1 6 donor
3 8 9 13 cation
5 7 8 9 10 13 rings
6 11 12 15 17 20 21 rings
6 14 19 22 23 25 26 rings
6 16 24 27 28 30 31 rings

> <PUBCHEM_HEAVY_ATOM_COUNT>
32

> <PUBCHEM_ATOM_DEF_STEREO_COUNT>
0

> <PUBCHEM_ATOM_UDEF_STEREO_COUNT>
0

> <PUBCHEM_BOND_DEF_STEREO_COUNT>
0

> <PUBCHEM_BOND_UDEF_STEREO_COUNT>
0

> <PUBCHEM_ISOTOPIC_ATOM_COUNT>
0

> <PUBCHEM_COMPONENT_COUNT>
1

> <PUBCHEM_CACTVS_TAUTO_COUNT>
6

> <PUBCHEM_CONFORMER_ID>
0713C91500000001

> <PUBCHEM_MMFF94_ENERGY>
101.4206

> <PUBCHEM_FEATURE_SELFOVERLAP>
40.597

> <PUBCHEM_SHAPE_FINGERPRINT>
10050765 1 18050565150511700685
10074138 170 18053070052135495680
10675989 125 17616526260113301069
10940486 97 18189901009816079844
11014199 57 17545316844906187290
11513181 2 18201152174415655142
12156800 1 16300961894558337195
13402501 40 18341333314171407685
13726171 33 17906206123165747132
138480 1 17762056541090835527
14117953 113 18196376038371739399
14251757 5 18194415608985914268
14647877 51 18051694339080778854
14725015 67 18196648712733308299
14790565 3 18410576193181957332
15230672 131 18408889517419060342
15320294 125 18041821958099556690
15320467 1 18194402414229033346
15351339 4 17688890640029663454
15400415 2 18410572877251524624
15439362 3 18049439249882022089
15927050 60 18341047411874322527
16719943 64 18410570704086581032
16728300 4 17968918860494033762
17093844 170 18340489954794065820
20531524 4 18197244579062638894
20642791 35 17981329985029805925
20764821 26 18410582764170268423
21033648 29 18058713823540455288
21344244 246 18266725919316283557
21796203 349 16541344573763688609
22956985 138 17832420895981163338
229767 44 18337654361914526250
23559900 14 17762051043712038231
238918 7 18273496788707319254
3298306 158 18343021064493345381
3383291 50 18338507668420535027
3882209 13 16974452615309772610
4093350 32 17130998556012004909
5080951 261 17899660675227693616
5085150 59 18338780282599788401
508706 21 18270126845397236278
5265222 85 18410581725047340588
532947 4 18266741264765024173
5385378 56 18269280058694144249
6669772 16 18266736892598950405
7097593 13 17256808326535470374
9981440 41 18408885131529399179

> <PUBCHEM_SHAPE_MULTIPOLES>
600.08
10
7.24
1.01
1.64
9
0.12
-10.31
-1.35
1.44
0.22
0.65
0.3
1.42

> <PUBCHEM_SHAPE_SELFOVERLAP>
1328.699

> <PUBCHEM_SHAPE_VOLUME>
321.3

> <PUBCHEM_COORDINATE_TYPE>
2
5
10

$$$$