161
 OpenBabel03292022013D

136143  0  0  1  0  0  0  0  0999 V2000
    3.6584   35.1262   -8.0984 C   0  0  0  0  0  0  0  0  0  0  0  0
    2.2075   35.1481   -8.5296 C   0  0  0  0  0  0  0  0  0  0  0  0
    1.9001   33.8646   -9.1061 O   0  0  0  0  0  0  0  0  0  0  0  0
    1.9762   33.7776  -10.4555 C   0  0  0  0  0  0  0  0  0  0  0  0
    2.0191   34.7302  -11.2171 O   0  0  0  0  0  0  0  0  0  0  0  0
    2.1284   32.3515  -10.8617 C   0  0  0  0  0  0  0  0  0  0  0  0
    2.9567   32.0409  -11.8914 C   0  0  0  0  0  0  0  0  0  0  0  0
    3.7726   32.9875  -12.7522 C   0  0  0  0  0  0  0  0  0  0  0  0
    3.1649   30.7121  -12.2086 N   0  0  0  0  0  0  0  0  0  0  0  0
    2.8298   29.6405  -11.4010 C   0  0  0  0  0  0  0  0  0  0  0  0
    3.5335   28.3546  -11.7907 C   0  0  0  0  0  0  0  0  0  0  0  0
    1.9955   29.8048  -10.3347 C   0  0  0  0  0  0  0  0  0  0  0  0
    1.8030   28.6135   -9.4245 C   0  0  0  0  0  0  0  0  0  0  0  0
    2.2710   27.5052   -9.6518 O   0  0  0  0  0  0  0  0  0  0  0  0
    1.0627   28.8539   -8.3184 O   0  0  0  0  0  0  0  0  0  0  0  0
    0.6744   27.6529   -7.5752 C   0  0  0  0  0  0  0  0  0  0  0  0
    1.5647   27.2162   -6.4522 C   0  0  0  0  0  0  0  0  0  0  0  0
    2.8469   26.6961   -6.4346 C   0  0  0  0  0  0  0  0  0  0  0  0
    3.1660   26.6419   -5.0983 N   0  0  0  0  0  0  0  0  0  0  0  0
    4.4861   26.5316   -4.5170 C   0  0  0  0  0  0  0  0  0  0  0  0
    4.7217   27.2417   -3.1801 C   0  0  0  0  0  0  0  0  0  0  0  0
    4.0439   26.8301   -2.0145 O   0  0  0  0  0  0  0  0  0  0  0  0
    4.5767   25.6521   -1.4167 C   0  0  0  0  0  0  0  0  0  0  0  0
    6.0770   25.6851   -1.0298 C   0  0  0  0  0  0  0  0  0  0  0  0
    6.3992   26.7924   -0.1753 O   0  0  0  0  0  0  0  0  0  0  0  0
    7.7148   26.7172    0.3968 C   0  0  0  0  0  0  0  0  0  0  0  0
    8.8319   27.2577   -0.5007 C   0  0  0  0  0  0  0  0  0  0  0  0
    8.9217   28.6923   -0.6824 N   0  0  0  0  0  0  0  0  0  0  0  0
    8.2496   29.7203   -0.0955 C   0  0  0  0  0  0  0  0  0  0  0  0
    8.7178   30.8520   -0.7394 C   0  0  0  0  0  0  0  0  0  0  0  0
    8.3451   32.2929   -0.5965 C   0  0  0  0  0  0  0  0  0  0  0  0
    6.9876   32.5355   -0.9140 O   0  0  0  0  0  0  0  0  0  0  0  0
    6.7397   32.3033   -2.2059 C   0  0  0  0  0  0  0  0  0  0  0  0
    7.2796   32.8966   -3.1324 O   0  0  0  0  0  0  0  0  0  0  0  0
    5.6972   31.2701   -2.3855 C   0  0  0  0  0  0  0  0  0  0  0  0
    4.9693   30.7126   -1.3725 C   0  0  0  0  0  0  0  0  0  0  0  0
    5.0793   30.7949    0.1290 C   0  0  0  0  0  0  0  0  0  0  0  0
    3.7984   30.0635   -1.6760 N   0  0  0  0  0  0  0  0  0  0  0  0
    3.1748   30.0688   -2.8964 C   0  0  0  0  0  0  0  0  0  0  0  0
    1.7528   29.5685   -2.8101 C   0  0  0  0  0  0  0  0  0  0  0  0
    3.9385   30.4622   -3.9701 C   0  0  0  0  0  0  0  0  0  0  0  0
    3.5108   30.3017   -5.3246 C   0  0  0  0  0  0  0  0  0  0  0  0
    3.4634   29.2348   -5.8901 O   0  0  0  0  0  0  0  0  0  0  0  0
    3.4245   31.5098   -5.9008 O   0  0  0  0  0  0  0  0  0  0  0  0
    3.1149   31.3875   -7.2736 C   0  0  0  0  0  0  0  0  0  0  0  0
    4.1931   30.8047   -8.1529 C   0  0  0  0  0  0  0  0  0  0  0  0
    5.3625   31.0439   -3.8518 C   0  0  3  0  0  0  0  0  0  0  0  0
    6.4649   30.3516   -4.8091 C   0  0  0  0  0  0  0  0  0  0  0  0
    7.0161   30.8453   -6.1017 C   0  0  0  0  0  0  0  0  0  0  0  0
    6.9955   32.0945   -6.8853 C   0  0  0  0  0  0  0  0  0  0  0  0
    6.6474   33.3368   -6.3739 C   0  0  0  0  0  0  0  0  0  0  0  0
    6.7270   34.4771   -7.1894 C   0  0  0  0  0  0  0  0  0  0  0  0
    7.1160   34.3796   -8.5290 C   0  0  0  0  0  0  0  0  0  0  0  0
    7.2054   35.9259   -9.6115 Br  0  0  0  0  0  0  0  0  0  0  0  0
    7.4297   33.1520   -9.0762 C   0  0  0  0  0  0  0  0  0  0  0  0
    7.3880   32.0293   -8.2557 C   0  0  0  0  0  0  0  0  0  0  0  0
    7.7208   29.8708   -6.7011 N   0  0  0  0  0  0  0  0  0  0  0  0
    7.8388   28.8686   -5.8288 O   0  0  0  0  0  0  0  0  0  0  0  0
    7.2428   29.1933   -4.6691 C   0  0  0  0  0  0  0  0  0  0  0  0
    7.6735   28.2100   -3.6863 C   0  0  0  0  0  0  0  0  0  0  0  0
    9.6375   30.4732   -1.6756 N   0  0  0  0  0  0  0  0  0  0  0  0
    9.7967   29.1622   -1.5925 N   0  0  0  0  0  0  0  0  0  0  0  0
    2.0740   26.8436   -4.3470 N   0  0  0  0  0  0  0  0  0  0  0  0
    1.1007   27.2438   -5.1564 N   0  0  0  0  0  0  0  0  0  0  0  0
    1.4241   31.2295  -10.0360 C   0  0  3  0  0  0  0  0  0  0  0  0
   -0.0676   31.3309  -10.1138 C   0  0  0  0  0  0  0  0  0  0  0  0
   -1.0637   31.7455   -9.1357 C   0  0  0  0  0  0  0  0  0  0  0  0
   -0.9824   32.1882   -7.7235 C   0  0  0  0  0  0  0  0  0  0  0  0
   -1.7793   33.2557   -7.2681 C   0  0  0  0  0  0  0  0  0  0  0  0
   -1.7984   33.6409   -5.9154 C   0  0  0  0  0  0  0  0  0  0  0  0
   -0.9885   32.9838   -4.9981 C   0  0  0  0  0  0  0  0  0  0  0  0
   -0.9913   33.4990   -3.1787 Br  0  0  0  0  0  0  0  0  0  0  0  0
   -0.2058   31.9177   -5.4147 C   0  0  0  0  0  0  0  0  0  0  0  0
   -0.2405   31.5056   -6.7574 C   0  0  0  0  0  0  0  0  0  0  0  0
   -2.2807   31.7202   -9.7071 N   0  0  0  0  0  0  0  0  0  0  0  0
   -2.1158   31.3357  -11.0090 O   0  0  0  0  0  0  0  0  0  0  0  0
   -0.8039   31.1220  -11.2610 C   0  0  0  0  0  0  0  0  0  0  0  0
   -0.4404   30.7592  -12.6442 C   0  0  0  0  0  0  0  0  0  0  0  0
    3.9871   36.0946   -7.7135 H   0  0  0  0  0  0  0  0  0  0  0  0
    4.2940   34.8367   -8.9405 H   0  0  0  0  0  0  0  0  0  0  0  0
    3.8125   34.3780   -7.3141 H   0  0  0  0  0  0  0  0  0  0  0  0
    2.0266   35.9769   -9.2216 H   0  0  0  0  0  0  0  0  0  0  0  0
    1.5630   35.2897   -7.6575 H   0  0  0  0  0  0  0  0  0  0  0  0
    3.7936   34.0257  -12.4252 H   0  0  0  0  0  0  0  0  0  0  0  0
    3.4039   32.9609  -13.7840 H   0  0  0  0  0  0  0  0  0  0  0  0
    4.8210   32.6611  -12.7695 H   0  0  0  0  0  0  0  0  0  0  0  0
    3.8808   30.5361  -12.9130 H   0  0  0  0  0  0  0  0  0  0  0  0
    4.0421   28.4486  -12.7572 H   0  0  0  0  0  0  0  0  0  0  0  0
    2.8308   27.5255  -11.9078 H   0  0  0  0  0  0  0  0  0  0  0  0
    4.3069   28.1061  -11.0549 H   0  0  0  0  0  0  0  0  0  0  0  0
    0.5051   26.8121   -8.2574 H   0  0  0  0  0  0  0  0  0  0  0  0
   -0.3076   27.8923   -7.1511 H   0  0  0  0  0  0  0  0  0  0  0  0
    3.5773   26.5251   -7.2118 H   0  0  0  0  0  0  0  0  0  0  0  0
    5.1701   26.9978   -5.2425 H   0  0  0  0  0  0  0  0  0  0  0  0
    4.7365   25.4766   -4.4455 H   0  0  0  0  0  0  0  0  0  0  0  0
    4.5583   28.2871   -3.3297 H   0  0  0  0  0  0  0  0  0  0  0  0
    5.7617   27.1977   -2.9318 H   0  0  0  0  0  0  0  0  0  0  0  0
    4.3891   24.8192   -2.1007 H   0  0  0  0  0  0  0  0  0  0  0  0
    3.9826   25.4875   -0.5139 H   0  0  0  0  0  0  0  0  0  0  0  0
    6.7105   25.7394   -1.9200 H   0  0  0  0  0  0  0  0  0  0  0  0
    6.3074   24.7429   -0.5220 H   0  0  0  0  0  0  0  0  0  0  0  0
    7.9363   25.6730    0.6511 H   0  0  0  0  0  0  0  0  0  0  0  0
    7.6934   27.2677    1.3427 H   0  0  0  0  0  0  0  0  0  0  0  0
    8.7509   26.8177   -1.5002 H   0  0  0  0  0  0  0  0  0  0  0  0
    9.8015   26.9644   -0.0823 H   0  0  0  0  0  0  0  0  0  0  0  0
    7.5112   29.5707    0.6745 H   0  0  0  0  0  0  0  0  0  0  0  0
    8.9838   32.9411   -1.2007 H   0  0  0  0  0  0  0  0  0  0  0  0
    8.4678   32.5917    0.4495 H   0  0  0  0  0  0  0  0  0  0  0  0
    5.7991   31.4902    0.5443 H   0  0  0  0  0  0  0  0  0  0  0  0
    5.3102   29.7953    0.5151 H   0  0  0  0  0  0  0  0  0  0  0  0
    4.1082   31.0759    0.5650 H   0  0  0  0  0  0  0  0  0  0  0  0
    3.4623   29.3560   -1.0108 H   0  0  0  0  0  0  0  0  0  0  0  0
    1.2788   29.3403   -3.7618 H   0  0  0  0  0  0  0  0  0  0  0  0
    1.1304   30.3229   -2.3064 H   0  0  0  0  0  0  0  0  0  0  0  0
    1.7010   28.6743   -2.1734 H   0  0  0  0  0  0  0  0  0  0  0  0
    2.8676   32.3899   -7.5999 H   0  0  0  0  0  0  0  0  0  0  0  0
    2.2342   30.7624   -7.3492 H   0  0  0  0  0  0  0  0  0  0  0  0
    5.1297   31.2391   -7.8944 H   0  0  0  0  0  0  0  0  0  0  0  0
    4.0397   31.0326   -9.2066 H   0  0  0  0  0  0  0  0  0  0  0  0
    4.2967   29.7251   -8.0537 H   0  0  0  0  0  0  0  0  0  0  0  0
    5.2292   32.0385   -4.2842 H   0  0  0  0  0  0  0  0  0  0  0  0
    6.3342   33.4637   -5.3471 H   0  0  0  0  0  0  0  0  0  0  0  0
    6.4621   35.4409   -6.7670 H   0  0  0  0  0  0  0  0  0  0  0  0
    7.7074   33.0408  -10.1217 H   0  0  0  0  0  0  0  0  0  0  0  0
    7.6360   31.0719   -8.7164 H   0  0  0  0  0  0  0  0  0  0  0  0
    8.7670   28.1361   -3.6976 H   0  0  0  0  0  0  0  0  0  0  0  0
    7.3549   27.2047   -3.9805 H   0  0  0  0  0  0  0  0  0  0  0  0
    7.3349   28.4635   -2.6880 H   0  0  0  0  0  0  0  0  0  0  0  0
    1.6524   31.4552   -9.0126 H   0  0  0  0  0  0  0  0  0  0  0  0
   -2.4377   33.7764   -7.9623 H   0  0  0  0  0  0  0  0  0  0  0  0
   -2.4656   34.4363   -5.5924 H   0  0  0  0  0  0  0  0  0  0  0  0
    0.4032   31.3714   -4.7019 H   0  0  0  0  0  0  0  0  0  0  0  0
    0.2805   30.5969   -7.0095 H   0  0  0  0  0  0  0  0  0  0  0  0
   -1.3127   30.7237  -13.2960 H   0  0  0  0  0  0  0  0  0  0  0  0
    0.0447   29.7771  -12.6656 H   0  0  0  0  0  0  0  0  0  0  0  0
    0.2586   31.4928  -13.0603 H   0  0  0  0  0  0  0  0  0  0  0  0
  1  2  1  0  0  0  0
  1 79  1  0  0  0  0
  1 80  1  0  0  0  0
  1 81  1  0  0  0  0
  2  3  1  0  0  0  0
  2 82  1  0  0  0  0
  2 83  1  0  0  0  0
  3  4  1  0  0  0  0
  4  5  2  0  0  0  0
  4  6  1  0  0  0  0
  6  7  2  0  0  0  0
  6 65  1  0  0  0  0
  7  8  1  0  0  0  0
  7  9  1  0  0  0  0
  8 84  1  0  0  0  0
  8 85  1  0  0  0  0
  8 86  1  0  0  0  0
  9 10  1  0  0  0  0
  9 87  1  0  0  0  0
 10 11  1  0  0  0  0
 10 12  2  0  0  0  0
 11 88  1  0  0  0  0
 11 89  1  0  0  0  0
 11 90  1  0  0  0  0
 12 13  1  0  0  0  0
 12 65  1  0  0  0  0
 13 14  2  0  0  0  0
 13 15  1  0  0  0  0
 15 16  1  0  0  0  0
 16 17  1  0  0  0  0
 16 91  1  0  0  0  0
 16 92  1  0  0  0  0
 17 18  2  0  0  0  0
 17 64  1  0  0  0  0
 18 19  1  0  0  0  0
 18 93  1  0  0  0  0
 19 20  1  0  0  0  0
 19 63  1  0  0  0  0
 20 21  1  0  0  0  0
 20 94  1  0  0  0  0
 20 95  1  0  0  0  0
 21 22  1  0  0  0  0
 21 96  1  0  0  0  0
 21 97  1  0  0  0  0
 22 23  1  0  0  0  0
 23 24  1  0  0  0  0
 23 98  1  0  0  0  0
 23 99  1  0  0  0  0
 24 25  1  0  0  0  0
 24100  1  0  0  0  0
 24101  1  0  0  0  0
 25 26  1  0  0  0  0
 26 27  1  0  0  0  0
 26102  1  0  0  0  0
 26103  1  0  0  0  0
 27 28  1  0  0  0  0
 27104  1  0  0  0  0
 27105  1  0  0  0  0
 28 29  1  0  0  0  0
 28 62  1  0  0  0  0
 29 30  2  0  0  0  0
 29106  1  0  0  0  0
 30 31  1  0  0  0  0
 30 61  1  0  0  0  0
 31 32  1  0  0  0  0
 31107  1  0  0  0  0
 31108  1  0  0  0  0
 32 33  1  0  0  0  0
 33 34  2  0  0  0  0
 33 35  1  0  0  0  0
 35 36  2  0  0  0  0
 35 47  1  0  0  0  0
 36 37  1  0  0  0  0
 36 38  1  0  0  0  0
 37109  1  0  0  0  0
 37110  1  0  0  0  0
 37111  1  0  0  0  0
 38 39  1  0  0  0  0
 38112  1  0  0  0  0
 39 40  1  0  0  0  0
 39 41  2  0  0  0  0
 40113  1  0  0  0  0
 40114  1  0  0  0  0
 40115  1  0  0  0  0
 41 42  1  0  0  0  0
 41 47  1  0  0  0  0
 42 43  2  0  0  0  0
 42 44  1  0  0  0  0
 44 45  1  0  0  0  0
 45 46  1  0  0  0  0
 45116  1  0  0  0  0
 45117  1  0  0  0  0
 46118  1  0  0  0  0
 46119  1  0  0  0  0
 46120  1  0  0  0  0
 47 48  1  0  0  0  0
 47121  1  0  0  0  0
 48 49  1  0  0  0  0
 48 59  2  0  0  0  0
 49 50  1  0  0  0  0
 49 57  2  0  0  0  0
 50 51  1  0  0  0  0
 50 56  2  0  0  0  0
 51 52  2  0  0  0  0
 51122  1  0  0  0  0
 52 53  1  0  0  0  0
 52123  1  0  0  0  0
 53 54  1  0  0  0  0
 53 55  2  0  0  0  0
 55 56  1  0  0  0  0
 55124  1  0  0  0  0
 56125  1  0  0  0  0
 57 58  1  0  0  0  0
 58 59  1  0  0  0  0
 59 60  1  0  0  0  0
 60126  1  0  0  0  0
 60127  1  0  0  0  0
 60128  1  0  0  0  0
 61 62  2  0  0  0  0
 63 64  2  0  0  0  0
 65 66  1  0  0  0  0
 65129  1  0  0  0  0
 66 67  1  0  0  0  0
 66 77  2  0  0  0  0
 67 68  1  0  0  0  0
 67 75  2  0  0  0  0
 68 69  1  0  0  0  0
 68 74  2  0  0  0  0
 69 70  2  0  0  0  0
 69130  1  0  0  0  0
 70 71  1  0  0  0  0
 70131  1  0  0  0  0
 71 72  1  0  0  0  0
 71 73  2  0  0  0  0
 73 74  1  0  0  0  0
 73132  1  0  0  0  0
 74133  1  0  0  0  0
 75 76  1  0  0  0  0
 76 77  1  0  0  0  0
 77 78  1  0  0  0  0
 78134  1  0  0  0  0
 78135  1  0  0  0  0
 78136  1  0  0  0  0
M  END
>  <Energy>
169.004

$$$$