90656754
  -OEChem-03242010103D

 73 75  0     1  0  0  0  0  0999 V2000
    0.1673    4.4057    2.2908 S   0  0  0  0  0  0  0  0  0  0  0  0
   -5.5534   -1.0335   -0.2738 S   0  0  0  0  0  0  0  0  0  0  0  0
   -3.7882    2.6259    0.9908 O   0  0  0  0  0  0  0  0  0  0  0  0
    2.9692    1.2036    2.3407 O   0  0  0  0  0  0  0  0  0  0  0  0
   -1.4605   -3.0501    1.2824 O   0  0  0  0  0  0  0  0  0  0  0  0
    2.4722   -2.2852   -2.4113 O   0  0  0  0  0  0  0  0  0  0  0  0
    4.2546   -3.9572   -1.0863 O   0  0  0  0  0  0  0  0  0  0  0  0
   -3.2511   -4.3507    1.9158 O   0  0  0  0  0  0  0  0  0  0  0  0
   -2.5515    1.4786   -0.6001 N   0  0  0  0  0  0  0  0  0  0  0  0
    2.5087    2.0213    0.2207 N   0  0  0  0  0  0  0  0  0  0  0  0
   -0.2544    2.7169    0.3795 N   0  0  0  0  0  0  0  0  0  0  0  0
   -3.0015   -1.2559    0.0740 N   0  0  0  0  0  0  0  0  0  0  0  0
    2.1544    3.3640    0.6340 C   0  0  1  0  0  0  0  0  0  0  0  0
    2.5643    4.4143   -0.4344 C   0  0  0  0  0  0  0  0  0  0  0  0
   -3.6646    0.7906   -1.2138 C   0  0  1  0  0  0  0  0  0  0  0  0
   -3.4374    0.5875   -2.7369 C   0  0  0  0  0  0  0  0  0  0  0  0
    0.6816    3.4044    0.9955 C   0  0  0  0  0  0  0  0  0  0  0  0
    4.0612    4.3403   -0.7629 C   0  0  0  0  0  0  0  0  0  0  0  0
    1.7659    4.2281   -1.7326 C   0  0  0  0  0  0  0  0  0  0  0  0
   -3.1756    1.9167   -3.4572 C   0  0  0  0  0  0  0  0  0  0  0  0
   -2.2559   -0.3566   -3.0021 C   0  0  0  0  0  0  0  0  0  0  0  0
   -3.9337   -0.4982   -0.4600 C   0  0  0  0  0  0  0  0  0  0  0  0
   -1.4729    2.9954    0.9677 C   0  0  0  0  0  0  0  0  0  0  0  0
   -2.6714    2.3708    0.4827 C   0  0  0  0  0  0  0  0  0  0  0  0
   -1.4448    3.8876    2.0189 C   0  0  0  0  0  0  0  0  0  0  0  0
    2.8904    1.0459    1.1252 C   0  0  0  0  0  0  0  0  0  0  0  0
    3.2477   -0.2718    0.5396 C   0  0  0  0  0  0  0  0  0  0  0  0
   -3.6019   -2.3435    0.6778 C   0  0  0  0  0  0  0  0  0  0  0  0
   -4.9775   -2.3960    0.5941 C   0  0  0  0  0  0  0  0  0  0  0  0
    2.6888   -0.6702   -0.6747 C   0  0  0  0  0  0  0  0  0  0  0  0
    4.1420   -1.1109    1.2044 C   0  0  0  0  0  0  0  0  0  0  0  0
   -2.8044   -3.3356    1.3421 C   0  0  0  0  0  0  0  0  0  0  0  0
    3.0242   -1.9075   -1.2244 C   0  0  0  0  0  0  0  0  0  0  0  0
    4.4772   -2.3483    0.6548 C   0  0  0  0  0  0  0  0  0  0  0  0
    3.9184   -2.7467   -0.5597 C   0  0  0  0  0  0  0  0  0  0  0  0
   -0.5594   -3.9683    1.9105 C   0  0  0  0  0  0  0  0  0  0  0  0
    1.5676   -1.3692   -3.0255 C   0  0  0  0  0  0  0  0  0  0  0  0
    3.4462   -5.0723   -0.7153 C   0  0  0  0  0  0  0  0  0  0  0  0
    0.8584   -3.4700    1.7290 C   0  0  0  0  0  0  0  0  0  0  0  0
    2.7372    3.5783    1.5406 H   0  0  0  0  0  0  0  0  0  0  0  0
    2.3469    5.4169   -0.0439 H   0  0  0  0  0  0  0  0  0  0  0  0
   -4.5386    1.4459   -1.0978 H   0  0  0  0  0  0  0  0  0  0  0  0
   -4.3379    0.1328   -3.1695 H   0  0  0  0  0  0  0  0  0  0  0  0
    0.6922    4.3617   -1.5708 H   0  0  0  0  0  0  0  0  0  0  0  0
    2.0673    4.9820   -2.4691 H   0  0  0  0  0  0  0  0  0  0  0  0
    4.6611    4.4469    0.1470 H   0  0  0  0  0  0  0  0  0  0  0  0
    4.3447    5.1495   -1.4445 H   0  0  0  0  0  0  0  0  0  0  0  0
    4.3316    3.3932   -1.2413 H   0  0  0  0  0  0  0  0  0  0  0  0
    1.9261    3.2480   -2.1915 H   0  0  0  0  0  0  0  0  0  0  0  0
   -1.6135    1.2705   -0.9294 H   0  0  0  0  0  0  0  0  0  0  0  0
   -3.9920    2.6226   -3.2720 H   0  0  0  0  0  0  0  0  0  0  0  0
   -2.4216   -1.3494   -2.5740 H   0  0  0  0  0  0  0  0  0  0  0  0
   -2.1227   -0.4978   -4.0810 H   0  0  0  0  0  0  0  0  0  0  0  0
   -3.1105    1.7603   -4.5394 H   0  0  0  0  0  0  0  0  0  0  0  0
   -2.2399    2.3835   -3.1321 H   0  0  0  0  0  0  0  0  0  0  0  0
   -1.3149    0.0389   -2.6106 H   0  0  0  0  0  0  0  0  0  0  0  0
    2.4932    1.8213   -0.7719 H   0  0  0  0  0  0  0  0  0  0  0  0
   -2.2606    4.2541    2.6263 H   0  0  0  0  0  0  0  0  0  0  0  0
   -5.6567   -3.1406    0.9851 H   0  0  0  0  0  0  0  0  0  0  0  0
    1.9594   -0.0225   -1.1434 H   0  0  0  0  0  0  0  0  0  0  0  0
    4.5912   -0.8169    2.1493 H   0  0  0  0  0  0  0  0  0  0  0  0
    5.1753   -2.9965    1.1775 H   0  0  0  0  0  0  0  0  0  0  0  0
   -0.6686   -4.9560    1.4495 H   0  0  0  0  0  0  0  0  0  0  0  0
   -0.7964   -4.0367    2.9778 H   0  0  0  0  0  0  0  0  0  0  0  0
    1.2342   -1.8256   -3.9634 H   0  0  0  0  0  0  0  0  0  0  0  0
    2.0588   -0.4262   -3.2887 H   0  0  0  0  0  0  0  0  0  0  0  0
    0.6746   -1.2221   -2.4105 H   0  0  0  0  0  0  0  0  0  0  0  0
    3.8503   -5.9648   -1.2008 H   0  0  0  0  0  0  0  0  0  0  0  0
    2.4147   -4.9284   -1.0517 H   0  0  0  0  0  0  0  0  0  0  0  0
    3.4715   -5.2220    0.3687 H   0  0  0  0  0  0  0  0  0  0  0  0
    1.0903   -3.3781    0.6642 H   0  0  0  0  0  0  0  0  0  0  0  0
    0.9776   -2.4743    2.1686 H   0  0  0  0  0  0  0  0  0  0  0  0
    1.5775   -4.1509    2.1923 H   0  0  0  0  0  0  0  0  0  0  0  0
  1 17  1  0  0  0  0
  1 25  1  0  0  0  0
  2 22  1  0  0  0  0
  2 29  1  0  0  0  0
  3 24  2  0  0  0  0
  4 26  2  0  0  0  0
  5 32  1  0  0  0  0
  5 36  1  0  0  0  0
  6 33  1  0  0  0  0
  6 37  1  0  0  0  0
  7 35  1  0  0  0  0
  7 38  1  0  0  0  0
  8 32  2  0  0  0  0
  9 15  1  0  0  0  0
  9 24  1  0  0  0  0
  9 50  1  0  0  0  0
 10 13  1  0  0  0  0
 10 26  1  0  0  0  0
 10 57  1  0  0  0  0
 11 17  2  0  0  0  0
 11 23  1  0  0  0  0
 12 22  2  0  0  0  0
 12 28  1  0  0  0  0
 13 14  1  0  0  0  0
 13 17  1  0  0  0  0
 13 40  1  0  0  0  0
 14 18  1  0  0  0  0
 14 19  1  0  0  0  0
 14 41  1  0  0  0  0
 15 16  1  0  0  0  0
 15 22  1  0  0  0  0
 15 42  1  0  0  0  0
 16 20  1  0  0  0  0
 16 21  1  0  0  0  0
 16 43  1  0  0  0  0
 18 46  1  0  0  0  0
 18 47  1  0  0  0  0
 18 48  1  0  0  0  0
 19 44  1  0  0  0  0
 19 45  1  0  0  0  0
 19 49  1  0  0  0  0
 20 51  1  0  0  0  0
 20 54  1  0  0  0  0
 20 55  1  0  0  0  0
 21 52  1  0  0  0  0
 21 53  1  0  0  0  0
 21 56  1  0  0  0  0
 23 24  1  0  0  0  0
 23 25  2  0  0  0  0
 25 58  1  0  0  0  0
 26 27  1  0  0  0  0
 27 30  2  0  0  0  0
 27 31  1  0  0  0  0
 28 29  2  0  0  0  0
 28 32  1  0  0  0  0
 29 59  1  0  0  0  0
 30 33  1  0  0  0  0
 30 60  1  0  0  0  0
 31 34  2  0  0  0  0
 31 61  1  0  0  0  0
 33 35  2  0  0  0  0
 34 35  1  0  0  0  0
 34 62  1  0  0  0  0
 36 39  1  0  0  0  0
 36 63  1  0  0  0  0
 36 64  1  0  0  0  0
 37 65  1  0  0  0  0
 37 66  1  0  0  0  0
 37 67  1  0  0  0  0
 38 68  1  0  0  0  0
 38 69  1  0  0  0  0
 38 70  1  0  0  0  0
 39 71  1  0  0  0  0
 39 72  1  0  0  0  0
 39 73  1  0  0  0  0
M  END
> <PUBCHEM_COMPOUND_CID>
90656754

> <PUBCHEM_CONFORMER_RMSD>
1.4

> <PUBCHEM_CONFORMER_DIVERSEORDER>
1
55
47
39
38
6
42
22
25
18
58
5
35
16
36
29
31
23
8
50
49
17
37
57
33
21
52
19
28
11
40
9
12
56
53
26
44
13
20
54
14
24
51
27
46
15
10
32
48
4
7
30
41
34
3
45
43
2

> <PUBCHEM_MMFF94_PARTIAL_CHARGES>
39
1 -0.08
10 -0.73
11 -0.57
12 -0.57
13 0.48
15 0.48
17 0.2
2 -0.08
22 0.2
23 0.14
24 0.72
25 -0.11
26 0.54
27 0.09
28 0.14
29 -0.11
3 -0.57
30 -0.15
31 -0.15
32 0.81
33 0.08
34 -0.15
35 0.08
36 0.28
37 0.28
38 0.28
4 -0.57
5 -0.43
50 0.37
57 0.37
58 0.15
59 0.15
6 -0.36
60 0.15
61 0.15
62 0.15
7 -0.36
8 -0.57
9 -0.73

> <PUBCHEM_EFFECTIVE_ROTOR_COUNT>
15

> <PUBCHEM_PHARMACOPHORE_FEATURES>
14
1 10 donor
1 11 acceptor
1 12 acceptor
1 3 acceptor
1 4 acceptor
1 6 acceptor
1 7 acceptor
1 8 acceptor
1 9 donor
3 14 18 19 hydrophobe
3 16 20 21 hydrophobe
5 1 11 17 23 25 rings
5 2 12 22 28 29 rings
6 27 30 31 33 34 35 rings

> <PUBCHEM_HEAVY_ATOM_COUNT>
39

> <PUBCHEM_ATOM_DEF_STEREO_COUNT>
2

> <PUBCHEM_ATOM_UDEF_STEREO_COUNT>
0

> <PUBCHEM_BOND_DEF_STEREO_COUNT>
0

> <PUBCHEM_BOND_UDEF_STEREO_COUNT>
0

> <PUBCHEM_ISOTOPIC_ATOM_COUNT>
0

> <PUBCHEM_COMPONENT_COUNT>
1

> <PUBCHEM_CACTVS_TAUTO_COUNT>
4

> <PUBCHEM_CONFORMER_ID>
05674FF200000001

> <PUBCHEM_MMFF94_ENERGY>
83.7377

> <PUBCHEM_FEATURE_SELFOVERLAP>
71.055

> <PUBCHEM_SHAPE_FINGERPRINT>
10305334 12 17768540391747198905
10928967 22 17844520218075100757
11285246 1 18195528090929790226
11828532 37 18188490310918210691
1361 2 16974471337214959263
140371 6 18411980265335614408
14040221 10 16392393664983669659
14040221 299 18120939661990646908
14114206 34 17833542397566786166
144659 178 18192441775250504862
14659021 117 17907011777926446098
14940108 7 14663242262437627410
150020 26 18194668483211255473
15351339 4 18045769097153066331
15406563 42 16736639180808116816
15968369 26 18267562762669574633
16067689 134 17907572524915721765
16067690 210 17840577098625955911
19311894 1 17906458727361432587
19319366 153 17982447393338451156
20764821 26 18265066746788556442
22223350 30 17971780971662091571
354706 35 17830992973741645927
463206 1 17835524821448219178
613672 6 18196348374033074992
86090 222 17403769003253395223

> <PUBCHEM_SHAPE_MULTIPOLES>
755.16
9.97
8.44
2.92
4.63
0.15
1.98
-5.36
1.3
-6.18
-2.83
1.27
0.35
2.5

> <PUBCHEM_SHAPE_SELFOVERLAP>
1552.785

> <PUBCHEM_SHAPE_VOLUME>
439.2

> <PUBCHEM_COORDINATE_TYPE>
2
5
10

$$$$