56945527
  -OEChem-03242010093D

 44 46  0     0  0  0  0  0  0999 V2000
    6.2045    1.7248    0.3671 O   0  0  0  0  0  0  0  0  0  0  0  0
    1.2764    1.7477   -0.7135 O   0  0  0  0  0  0  0  0  0  0  0  0
    4.9585   -2.8472   -0.3246 O   0  0  0  0  0  0  0  0  0  0  0  0
    6.9141   -0.9432    0.1405 O   0  0  0  0  0  0  0  0  0  0  0  0
    0.5760   -0.3756    0.0125 N   0  0  0  0  0  0  0  0  0  0  0  0
   -1.0439   -2.5528    0.8561 N   0  0  0  0  0  0  0  0  0  0  0  0
   -3.5954   -0.0103    0.0109 C   0  0  0  0  0  0  0  0  0  0  0  0
   -0.8179   -0.2692    0.0174 C   0  0  0  0  0  0  0  0  0  0  0  0
   -1.6186   -1.3341    0.4304 C   0  0  0  0  0  0  0  0  0  0  0  0
   -3.0073   -1.2047    0.4272 C   0  0  0  0  0  0  0  0  0  0  0  0
   -5.0360    0.1244    0.0068 C   0  0  0  0  0  0  0  0  0  0  0  0
   -2.7947    1.0547   -0.4020 C   0  0  0  0  0  0  0  0  0  0  0  0
   -1.4060    0.9252   -0.3988 C   0  0  0  0  0  0  0  0  0  0  0  0
    2.9359    0.1955   -0.2145 C   0  0  0  0  0  0  0  0  0  0  0  0
    1.5119    0.6035   -0.3400 C   0  0  0  0  0  0  0  0  0  0  0  0
    3.9184    1.1576    0.0195 C   0  0  0  0  0  0  0  0  0  0  0  0
    3.2896   -1.1488   -0.3294 C   0  0  0  0  0  0  0  0  0  0  0  0
   -5.6948    0.6027    1.1394 C   0  0  0  0  0  0  0  0  0  0  0  0
   -5.7659   -0.2240   -1.1295 C   0  0  0  0  0  0  0  0  0  0  0  0
    5.2545    0.7754    0.1385 C   0  0  0  0  0  0  0  0  0  0  0  0
    4.6258   -1.5310   -0.2105 C   0  0  0  0  0  0  0  0  0  0  0  0
    5.6083   -0.5690    0.0236 C   0  0  0  0  0  0  0  0  0  0  0  0
   -7.0836    0.7326    1.1357 C   0  0  0  0  0  0  0  0  0  0  0  0
   -7.1547   -0.0940   -1.1333 C   0  0  0  0  0  0  0  0  0  0  0  0
   -7.8136    0.3843   -0.0006 C   0  0  0  0  0  0  0  0  0  0  0  0
    5.7585    3.0755    0.4714 C   0  0  0  0  0  0  0  0  0  0  0  0
   -3.6297   -2.0374    0.7499 H   0  0  0  0  0  0  0  0  0  0  0  0
   -3.2386    1.9917   -0.7307 H   0  0  0  0  0  0  0  0  0  0  0  0
   -0.8641    1.7950   -0.7395 H   0  0  0  0  0  0  0  0  0  0  0  0
    0.9319   -1.2561    0.3639 H   0  0  0  0  0  0  0  0  0  0  0  0
    3.5916    2.1878    0.1088 H   0  0  0  0  0  0  0  0  0  0  0  0
    2.5546   -1.9173   -0.5508 H   0  0  0  0  0  0  0  0  0  0  0  0
   -5.1410    0.8787    2.0337 H   0  0  0  0  0  0  0  0  0  0  0  0
   -5.2682   -0.5985   -2.0209 H   0  0  0  0  0  0  0  0  0  0  0  0
   -1.6495   -3.3091    1.1482 H   0  0  0  0  0  0  0  0  0  0  0  0
   -0.0465   -2.7025    0.8524 H   0  0  0  0  0  0  0  0  0  0  0  0
   -7.5967    1.1050    2.0176 H   0  0  0  0  0  0  0  0  0  0  0  0
   -7.7233   -0.3651   -2.0181 H   0  0  0  0  0  0  0  0  0  0  0  0
   -8.8949    0.4854   -0.0036 H   0  0  0  0  0  0  0  0  0  0  0  0
    4.1521   -3.3677   -0.4815 H   0  0  0  0  0  0  0  0  0  0  0  0
    6.9676   -1.9089    0.0334 H   0  0  0  0  0  0  0  0  0  0  0  0
    5.3118    3.4275   -0.4648 H   0  0  0  0  0  0  0  0  0  0  0  0
    5.0948    3.2168    1.3314 H   0  0  0  0  0  0  0  0  0  0  0  0
    6.6445    3.6936    0.6510 H   0  0  0  0  0  0  0  0  0  0  0  0
  1 20  1  0  0  0  0
  1 26  1  0  0  0  0
  2 15  2  0  0  0  0
  3 21  1  0  0  0  0
  3 40  1  0  0  0  0
  4 22  1  0  0  0  0
  4 41  1  0  0  0  0
  5  8  1  0  0  0  0
  5 15  1  0  0  0  0
  5 30  1  0  0  0  0
  6  9  1  0  0  0  0
  6 35  1  0  0  0  0
  6 36  1  0  0  0  0
  7 10  2  0  0  0  0
  7 11  1  0  0  0  0
  7 12  1  0  0  0  0
  8  9  2  0  0  0  0
  8 13  1  0  0  0  0
  9 10  1  0  0  0  0
 10 27  1  0  0  0  0
 11 18  2  0  0  0  0
 11 19  1  0  0  0  0
 12 13  2  0  0  0  0
 12 28  1  0  0  0  0
 13 29  1  0  0  0  0
 14 15  1  0  0  0  0
 14 16  1  0  0  0  0
 14 17  2  0  0  0  0
 16 20  2  0  0  0  0
 16 31  1  0  0  0  0
 17 21  1  0  0  0  0
 17 32  1  0  0  0  0
 18 23  1  0  0  0  0
 18 33  1  0  0  0  0
 19 24  2  0  0  0  0
 19 34  1  0  0  0  0
 20 22  1  0  0  0  0
 21 22  2  0  0  0  0
 23 25  2  0  0  0  0
 23 37  1  0  0  0  0
 24 25  1  0  0  0  0
 24 38  1  0  0  0  0
 25 39  1  0  0  0  0
 26 42  1  0  0  0  0
 26 43  1  0  0  0  0
 26 44  1  0  0  0  0
M  END
> <PUBCHEM_COMPOUND_CID>
56945527

> <PUBCHEM_CONFORMER_RMSD>
0.8

> <PUBCHEM_CONFORMER_DIVERSEORDER>
2
15
7
13
3
5
12
9
14
4
17
6
10
11
8
1
16

> <PUBCHEM_MMFF94_PARTIAL_CHARGES>
39
1 -0.36
10 -0.15
12 -0.15
13 -0.15
14 0.09
15 0.54
16 -0.15
17 -0.15
18 -0.15
19 -0.15
2 -0.57
20 0.08
21 0.08
22 0.08
23 -0.15
24 -0.15
25 -0.15
26 0.28
27 0.15
28 0.15
29 0.15
3 -0.53
30 0.37
31 0.15
32 0.15
33 0.15
34 0.15
35 0.4
36 0.4
37 0.15
38 0.15
39 0.15
4 -0.53
40 0.45
41 0.45
5 -0.55
6 -0.9
8 0.12
9 0.1

> <PUBCHEM_EFFECTIVE_ROTOR_COUNT>
5

> <PUBCHEM_PHARMACOPHORE_FEATURES>
10
1 1 acceptor
1 2 acceptor
1 3 donor
1 4 donor
1 5 donor
1 6 cation
1 6 donor
6 11 18 19 23 24 25 rings
6 14 16 17 20 21 22 rings
6 7 8 9 10 12 13 rings

> <PUBCHEM_HEAVY_ATOM_COUNT>
26

> <PUBCHEM_ATOM_DEF_STEREO_COUNT>
0

> <PUBCHEM_ATOM_UDEF_STEREO_COUNT>
0

> <PUBCHEM_BOND_DEF_STEREO_COUNT>
0

> <PUBCHEM_BOND_UDEF_STEREO_COUNT>
0

> <PUBCHEM_ISOTOPIC_ATOM_COUNT>
0

> <PUBCHEM_COMPONENT_COUNT>
1

> <PUBCHEM_CACTVS_TAUTO_COUNT>
47

> <PUBCHEM_CONFORMER_ID>
0364EB7700000002

> <PUBCHEM_MMFF94_ENERGY>
107.6348

> <PUBCHEM_FEATURE_SELFOVERLAP>
50.754

> <PUBCHEM_SHAPE_FINGERPRINT>
10 15 17604146021245528924
10299344 5 17917710197562367007
10411042 1 18052540964285107814
10835480 77 18339078310644403128
11315181 36 18060700611841045113
11719270 70 14851598869258433464
12107698 1 17346596370352837249
12166972 35 18342458136342490393
12236239 1 18131350796187171639
12516196 113 18273493472475751217
12838862 33 18188193369336011218
13533116 47 18272651216962844890
13685833 64 18259988149750444374
14170010 4 18261111889473782420
14251764 18 18131633391818257953
14251764 46 18273214192981319502
14849402 71 18130228267656564681
15183329 4 18411418397402630555
15419008 47 17385716993884712309
15419008 91 17676472982831984453
1577012 14 18131917057492046665
15849732 13 17167865266073080215
16120349 18 18341608247907788080
19141452 34 18336266829004614847
19427546 62 18338234994411639958
20157964 124 18413670219070765502
20281389 69 18335138691715235913
21033648 29 17676757726462994573
21130935 74 18412829092507342075
21236236 1 18336828581495870221
21267235 1 18338239263577483822
21521721 280 18411984667608319619
21781051 124 17386876991890156795
21792934 111 18335974299061854080
21859007 373 17313927667724953293
22224240 67 18260268560429957635
23035841 295 12179842810454020137
23081809 10 17847061082309532781
23522609 53 17774461454735861865
23536379 177 17632859703212004599
23559900 14 18267579281277117481
23569917 315 18336272318880927451
23569943 247 18122627154500068091
255183 451 17773047346055595710
3004659 81 18187365416011504866
335352 9 18333734627934781759
34797466 226 17846223267439948076
3545911 37 18335140895307356236
3633792 109 18409443662024749901
397830 11 17386863883401880489
4073 2 18262521510562057986
44555599 121 17988933266512460217
5104073 3 18334580186873436874
59755656 215 17822008666789524155
59755656 520 18410569605113530223

> <PUBCHEM_SHAPE_MULTIPOLES>
501.63
21.91
2.15
0.9
9.57
0.06
0.01
-4.03
0.75
-4.58
0.28
1.3
-0.03
0.3

> <PUBCHEM_SHAPE_SELFOVERLAP>
1101.035

> <PUBCHEM_SHAPE_VOLUME>
270.4

> <PUBCHEM_COORDINATE_TYPE>
2
5
10

$$$$