14626533
  -OEChem-03242010103D

 42 43  0     0  0  0  0  0  0999 V2000
   -2.4113   -1.6315   -2.3263 Cl  0  0  0  0  0  0  0  0  0  0  0  0
    4.1718   -1.6989   -2.1621 Cl  0  0  0  0  0  0  0  0  0  0  0  0
   -3.5857    0.4394    0.3012 O   0  0  0  0  0  0  0  0  0  0  0  0
    0.4410    1.2705    1.8274 O   0  0  0  0  0  0  0  0  0  0  0  0
   -1.4374    1.1541   -0.2160 N   0  0  0  0  0  0  0  0  0  0  0  0
   -0.0969    0.8569   -0.3904 N   0  0  0  0  0  0  0  0  0  0  0  0
   -1.7461    2.5545   -0.4415 C   0  0  0  0  0  0  0  0  0  0  0  0
   -2.3389    3.1551    0.8382 C   0  0  0  0  0  0  0  0  0  0  0  0
   -0.4589    3.2971   -0.8152 C   0  0  0  0  0  0  0  0  0  0  0  0
   -2.7629    2.6718   -1.5828 C   0  0  0  0  0  0  0  0  0  0  0  0
   -2.3886    0.2103    0.1381 C   0  0  0  0  0  0  0  0  0  0  0  0
   -1.9397   -1.1825    0.3234 C   0  0  0  0  0  0  0  0  0  0  0  0
    0.7654    0.9432    0.6888 C   0  0  0  0  0  0  0  0  0  0  0  0
    2.1811    0.5938    0.4073 C   0  0  0  0  0  0  0  0  0  0  0  0
   -1.9178   -2.0793   -0.7329 C   0  0  0  0  0  0  0  0  0  0  0  0
   -1.5395   -1.5610    1.5962 C   0  0  0  0  0  0  0  0  0  0  0  0
   -1.4856   -3.3869   -0.5121 C   0  0  0  0  0  0  0  0  0  0  0  0
   -1.1071   -2.8686    1.8171 C   0  0  0  0  0  0  0  0  0  0  0  0
    2.4602   -0.2821   -0.6215 C   0  0  0  0  0  0  0  0  0  0  0  0
    3.1729    1.1573    1.1833 C   0  0  0  0  0  0  0  0  0  0  0  0
   -1.0802   -3.7815    0.7629 C   0  0  0  0  0  0  0  0  0  0  0  0
    3.7901   -0.6090   -0.8861 C   0  0  0  0  0  0  0  0  0  0  0  0
    4.5028    0.8303    0.9187 C   0  0  0  0  0  0  0  0  0  0  0  0
    4.8114   -0.0528   -0.1158 C   0  0  0  0  0  0  0  0  0  0  0  0
   -1.6712    3.0101    1.6947 H   0  0  0  0  0  0  0  0  0  0  0  0
   -2.4951    4.2343    0.7229 H   0  0  0  0  0  0  0  0  0  0  0  0
   -3.3084    2.7234    1.1043 H   0  0  0  0  0  0  0  0  0  0  0  0
    0.0270    2.9000   -1.7147 H   0  0  0  0  0  0  0  0  0  0  0  0
    0.2684    3.3554    0.0011 H   0  0  0  0  0  0  0  0  0  0  0  0
   -0.6988    4.3426   -1.0525 H   0  0  0  0  0  0  0  0  0  0  0  0
   -3.7357    2.2359   -1.3366 H   0  0  0  0  0  0  0  0  0  0  0  0
   -2.9432    3.7226   -1.8380 H   0  0  0  0  0  0  0  0  0  0  0  0
   -2.3990    2.1694   -2.4869 H   0  0  0  0  0  0  0  0  0  0  0  0
    0.1741    0.6132   -1.3369 H   0  0  0  0  0  0  0  0  0  0  0  0
   -1.5592   -0.8585    2.4249 H   0  0  0  0  0  0  0  0  0  0  0  0
   -1.4582   -4.1107   -1.3228 H   0  0  0  0  0  0  0  0  0  0  0  0
   -0.7916   -3.1759    2.8099 H   0  0  0  0  0  0  0  0  0  0  0  0
    1.6820   -0.7545   -1.2132 H   0  0  0  0  0  0  0  0  0  0  0  0
    2.9492    1.8507    1.9885 H   0  0  0  0  0  0  0  0  0  0  0  0
   -0.7433   -4.7996    0.9349 H   0  0  0  0  0  0  0  0  0  0  0  0
    5.2982    1.2644    1.5174 H   0  0  0  0  0  0  0  0  0  0  0  0
    5.8523   -0.2981   -0.3106 H   0  0  0  0  0  0  0  0  0  0  0  0
  1 15  1  0  0  0  0
  2 22  1  0  0  0  0
  3 11  2  0  0  0  0
  4 13  2  0  0  0  0
  5  6  1  0  0  0  0
  5  7  1  0  0  0  0
  5 11  1  0  0  0  0
  6 13  1  0  0  0  0
  6 34  1  0  0  0  0
  7  8  1  0  0  0  0
  7  9  1  0  0  0  0
  7 10  1  0  0  0  0
  8 25  1  0  0  0  0
  8 26  1  0  0  0  0
  8 27  1  0  0  0  0
  9 28  1  0  0  0  0
  9 29  1  0  0  0  0
  9 30  1  0  0  0  0
 10 31  1  0  0  0  0
 10 32  1  0  0  0  0
 10 33  1  0  0  0  0
 11 12  1  0  0  0  0
 12 15  1  0  0  0  0
 12 16  2  0  0  0  0
 13 14  1  0  0  0  0
 14 19  2  0  0  0  0
 14 20  1  0  0  0  0
 15 17  2  0  0  0  0
 16 18  1  0  0  0  0
 16 35  1  0  0  0  0
 17 21  1  0  0  0  0
 17 36  1  0  0  0  0
 18 21  2  0  0  0  0
 18 37  1  0  0  0  0
 19 22  1  0  0  0  0
 19 38  1  0  0  0  0
 20 23  2  0  0  0  0
 20 39  1  0  0  0  0
 21 40  1  0  0  0  0
 22 24  2  0  0  0  0
 23 24  1  0  0  0  0
 23 41  1  0  0  0  0
 24 42  1  0  0  0  0
M  END
> <PUBCHEM_COMPOUND_CID>
14626533

> <PUBCHEM_CONFORMER_RMSD>
0.8

> <PUBCHEM_CONFORMER_DIVERSEORDER>
1
24
41
11
9
31
35
39
28
19
37
16
40
20
27
7
38
34
30
17
13
21
25
32
33
36
8
15
29
23
14
22
18
5
26
10
12
3
6
4
2

> <PUBCHEM_MMFF94_PARTIAL_CHARGES>
30
1 -0.18
11 0.54
12 0.09
13 0.54
14 0.09
15 0.18
16 -0.15
17 -0.15
18 -0.15
19 -0.15
2 -0.18
20 -0.15
21 -0.15
22 0.18
23 -0.15
24 -0.15
3 -0.57
34 0.37
35 0.15
36 0.15
37 0.15
38 0.15
39 0.15
4 -0.57
40 0.15
41 0.15
42 0.15
5 -0.36
6 -0.43
7 0.3

> <PUBCHEM_EFFECTIVE_ROTOR_COUNT>
6

> <PUBCHEM_PHARMACOPHORE_FEATURES>
6
1 3 acceptor
1 4 acceptor
1 6 donor
4 7 8 9 10 hydrophobe
6 12 15 16 17 18 21 rings
6 14 19 20 22 23 24 rings

> <PUBCHEM_HEAVY_ATOM_COUNT>
24

> <PUBCHEM_ATOM_DEF_STEREO_COUNT>
0

> <PUBCHEM_ATOM_UDEF_STEREO_COUNT>
0

> <PUBCHEM_BOND_DEF_STEREO_COUNT>
0

> <PUBCHEM_BOND_UDEF_STEREO_COUNT>
0

> <PUBCHEM_ISOTOPIC_ATOM_COUNT>
0

> <PUBCHEM_COMPONENT_COUNT>
1

> <PUBCHEM_CACTVS_TAUTO_COUNT>
2

> <PUBCHEM_CONFORMER_ID>
00DF2EE500000001

> <PUBCHEM_MMFF94_ENERGY>
78.2116

> <PUBCHEM_FEATURE_SELFOVERLAP>
30.446

> <PUBCHEM_SHAPE_FINGERPRINT>
10366900 7 18200584912815649476
10764073 3 17478943386623800091
107951 10 18046366148677254223
11578080 2 16700313438318662947
11582403 64 16474513195027595632
12156800 1 16046388673124138942
12173636 292 18118399553570342332
12363563 72 17975129052602194122
12553582 1 18049173455445209262
12788726 201 18265594619722750963
13135754 10 17826269325601694139
13140716 1 18120096331929224025
13149001 5 17683214213222883159
13681431 1 17614281490870006529
14251757 17 17916024555905705118
14251757 5 18261125105098273092
15415430 2 18337379547820154859
15463212 79 18114456765350520928
16752209 62 18115568405818143585
17357779 13 18055899129338416918
18785283 64 16607457061286830777
19930381 70 17055010104113517263
20600515 1 17468709355667462921
20693207 138 18130241384622953028
21285901 2 18270111443570594871
21452121 199 17831576853033790232
23419403 2 16316739654288397329
23557571 272 18410570725867963624
23559900 14 18199750250878814414
23728640 28 18334856121252755507
3027735 51 18341039753267788143
3298306 158 17905326226031203726
3411729 13 17548153129798202041
5262128 65 17686051004313863891
59755656 215 18339926996698654741
81228 2 18337947995352898625
9709674 26 18343302587294957894

> <PUBCHEM_SHAPE_MULTIPOLES>
475.95
7.17
4.46
1.86
10.39
0.69
0.44
-0.16
1.59
-4.58
0.02
0
0.77
1.55

> <PUBCHEM_SHAPE_SELFOVERLAP>
997.744

> <PUBCHEM_SHAPE_VOLUME>
271.3

> <PUBCHEM_COORDINATE_TYPE>
2
5
10

$$$$