90667031
  -OEChem-03242010103D

 86 93  0     1  0  0  0  0  0999 V2000
   -4.7410   -2.3378    0.9562 O   0  0  0  0  0  0  0  0  0  0  0  0
   -5.2528    1.4442   -0.4062 O   0  0  0  0  0  0  0  0  0  0  0  0
   -5.5603   -3.2424   -1.0014 O   0  0  0  0  0  0  0  0  0  0  0  0
   -6.3312    0.0508   -1.8951 O   0  0  0  0  0  0  0  0  0  0  0  0
    4.4967   -2.1122   -1.5922 N   0  0  0  0  0  0  0  0  0  0  0  0
    4.0061    0.9994    0.4913 N   0  0  0  0  0  0  0  0  0  0  0  0
    1.1314   -2.3636    1.5543 N   0  0  0  0  0  0  0  0  0  0  0  0
   -0.0740    2.9305   -0.4642 N   0  0  0  0  0  0  0  0  0  0  0  0
    1.6573    1.7830   -1.2740 N   0  0  0  0  0  0  0  0  0  0  0  0
    3.3229   -2.5313    1.1814 N   0  0  0  0  0  0  0  0  0  0  0  0
    2.2309   -1.7307   -2.2605 N   0  0  0  0  0  0  0  0  0  0  0  0
    2.7980    2.1166    2.2286 N   0  0  0  0  0  0  0  0  0  0  0  0
    0.3659   -1.8356   -0.6897 N   0  0  0  0  0  0  0  0  0  0  0  0
    0.6323    3.1753    1.8470 N   0  0  0  0  0  0  0  0  0  0  0  0
    1.6456    3.2008    3.9559 N   0  0  0  0  0  0  0  0  0  0  0  0
    0.0258   -1.3507   -2.9534 N   0  0  0  0  0  0  0  0  0  0  0  0
    5.0540   -1.9094   -2.9288 C   0  0  0  0  0  0  0  0  0  0  0  0
    5.1320    0.6262    1.3461 C   0  0  0  0  0  0  0  0  0  0  0  0
    6.4815   -1.4850   -3.1324 C   0  0  0  0  0  0  0  0  0  0  0  0
    6.4976    0.3560    0.7790 C   0  0  0  0  0  0  0  0  0  0  0  0
    6.2624    1.5806    1.6127 C   0  0  0  0  0  0  0  0  0  0  0  0
    5.3655   -0.5330   -3.4464 C   0  0  0  0  0  0  0  0  0  0  0  0
   -0.1781   -2.3671    2.3092 C   0  0  2  0  0  0  0  0  0  0  0  0
   -1.4031    3.6499   -0.4344 C   0  0  2  0  0  0  0  0  0  0  0  0
   -1.1961   -3.3844    1.7588 C   0  0  0  0  0  0  0  0  0  0  0  0
   -2.5927    2.7196   -0.1279 C   0  0  0  0  0  0  0  0  0  0  0  0
   -2.5786   -2.7337    1.9312 C   0  0  1  0  0  0  0  0  0  0  0  0
   -3.7753    3.2630   -0.9469 C   0  0  1  0  0  0  0  0  0  0  0  0
    2.8847    1.7211    0.9358 C   0  0  0  0  0  0  0  0  0  0  0  0
    3.1275   -2.0218   -1.2874 C   0  0  0  0  0  0  0  0  0  0  0  0
   -1.8043    4.2702   -1.7404 C   0  0  0  0  0  0  0  0  0  0  0  0
   -0.9398   -1.0762    2.2400 C   0  0  0  0  0  0  0  0  0  0  0  0
    1.8513    2.0392    0.0602 C   0  0  0  0  0  0  0  0  0  0  0  0
    2.6733   -2.2284    0.0112 C   0  0  0  0  0  0  0  0  0  0  0  0
   -3.0937    4.0553   -2.0191 C   0  0  0  0  0  0  0  0  0  0  0  0
   -2.2443   -1.2775    2.0303 C   0  0  0  0  0  0  0  0  0  0  0  0
    0.7845    2.7525    0.5829 C   0  0  0  0  0  0  0  0  0  0  0  0
    1.3079   -2.1197    0.2221 C   0  0  0  0  0  0  0  0  0  0  0  0
   -4.6546    2.1501   -1.4982 C   0  0  0  0  0  0  0  0  0  0  0  0
   -3.5138   -3.0513    0.7734 C   0  0  0  0  0  0  0  0  0  0  0  0
    0.4938    2.3307   -1.5569 C   0  0  0  0  0  0  0  0  0  0  0  0
    2.3700   -2.6051    2.0871 C   0  0  0  0  0  0  0  0  0  0  0  0
    0.9250   -1.6568   -1.9064 C   0  0  0  0  0  0  0  0  0  0  0  0
    1.6934    2.8089    2.5984 C   0  0  0  0  0  0  0  0  0  0  0  0
   -6.0747    0.4096   -0.7542 C   0  0  0  0  0  0  0  0  0  0  0  0
   -5.6826   -2.5287   -0.0155 C   0  0  0  0  0  0  0  0  0  0  0  0
   -6.9136   -1.7189    0.3316 C   0  0  0  0  0  0  0  0  0  0  0  0
   -6.6127   -0.2321    0.5070 C   0  0  0  0  0  0  0  0  0  0  0  0
    4.6661   -2.6300   -3.6422 H   0  0  0  0  0  0  0  0  0  0  0  0
    4.8225   -0.0139    2.1664 H   0  0  0  0  0  0  0  0  0  0  0  0
    5.2233    0.3115   -2.7833 H   0  0  0  0  0  0  0  0  0  0  0  0
    6.2578    2.5390    1.1083 H   0  0  0  0  0  0  0  0  0  0  0  0
    7.0739   -0.4505    1.2150 H   0  0  0  0  0  0  0  0  0  0  0  0
    6.6494    0.4937   -0.2844 H   0  0  0  0  0  0  0  0  0  0  0  0
    5.1539   -0.3271   -4.4883 H   0  0  0  0  0  0  0  0  0  0  0  0
    7.0875   -1.2803   -2.2586 H   0  0  0  0  0  0  0  0  0  0  0  0
    7.0235   -1.9189   -3.9636 H   0  0  0  0  0  0  0  0  0  0  0  0
    6.6797    1.6001    2.6119 H   0  0  0  0  0  0  0  0  0  0  0  0
    5.1107   -2.3345   -0.8153 H   0  0  0  0  0  0  0  0  0  0  0  0
    4.0047    0.7365   -0.4889 H   0  0  0  0  0  0  0  0  0  0  0  0
    0.0813   -2.5907    3.3512 H   0  0  0  0  0  0  0  0  0  0  0  0
   -1.2957    4.4335    0.3254 H   0  0  0  0  0  0  0  0  0  0  0  0
   -2.8204    2.7108    0.9444 H   0  0  0  0  0  0  0  0  0  0  0  0
   -2.3570    1.6837   -0.4075 H   0  0  0  0  0  0  0  0  0  0  0  0
   -1.1392   -4.3278    2.3151 H   0  0  0  0  0  0  0  0  0  0  0  0
   -1.0049   -3.6388    0.7097 H   0  0  0  0  0  0  0  0  0  0  0  0
   -3.0430   -3.0407    2.8769 H   0  0  0  0  0  0  0  0  0  0  0  0
   -4.3764    3.9336   -0.3201 H   0  0  0  0  0  0  0  0  0  0  0  0
   -1.1436    4.8596   -2.3607 H   0  0  0  0  0  0  0  0  0  0  0  0
   -0.4923   -0.1020    2.3788 H   0  0  0  0  0  0  0  0  0  0  0  0
   -3.5971    4.4517   -2.8896 H   0  0  0  0  0  0  0  0  0  0  0  0
   -2.9735   -0.4805    1.9873 H   0  0  0  0  0  0  0  0  0  0  0  0
   -4.0677    1.4500   -2.1065 H   0  0  0  0  0  0  0  0  0  0  0  0
   -5.4482    2.5768   -2.1242 H   0  0  0  0  0  0  0  0  0  0  0  0
   -3.0669   -2.7499   -0.1827 H   0  0  0  0  0  0  0  0  0  0  0  0
   -3.7199   -4.1279    0.7465 H   0  0  0  0  0  0  0  0  0  0  0  0
    2.5165   -2.8274    3.1352 H   0  0  0  0  0  0  0  0  0  0  0  0
    0.0202    2.3105   -2.5289 H   0  0  0  0  0  0  0  0  0  0  0  0
   -7.5282    0.3017    0.7843 H   0  0  0  0  0  0  0  0  0  0  0  0
   -7.6452   -1.8630   -0.4721 H   0  0  0  0  0  0  0  0  0  0  0  0
   -7.3503   -2.1351    1.2461 H   0  0  0  0  0  0  0  0  0  0  0  0
   -5.8855   -0.0946    1.3156 H   0  0  0  0  0  0  0  0  0  0  0  0
   -0.9621   -1.2768   -2.7531 H   0  0  0  0  0  0  0  0  0  0  0  0
    0.3828   -1.2019   -3.8870 H   0  0  0  0  0  0  0  0  0  0  0  0
    0.8474    3.7196    4.2950 H   0  0  0  0  0  0  0  0  0  0  0  0
    2.4097    2.9561    4.5704 H   0  0  0  0  0  0  0  0  0  0  0  0
  1 40  1  0  0  0  0
  1 46  1  0  0  0  0
  2 39  1  0  0  0  0
  2 45  1  0  0  0  0
  3 46  2  0  0  0  0
  4 45  2  0  0  0  0
  5 17  1  0  0  0  0
  5 30  1  0  0  0  0
  5 59  1  0  0  0  0
  6 18  1  0  0  0  0
  6 29  1  0  0  0  0
  6 60  1  0  0  0  0
  7 23  1  0  0  0  0
  7 38  1  0  0  0  0
  7 42  1  0  0  0  0
  8 24  1  0  0  0  0
  8 37  1  0  0  0  0
  8 41  1  0  0  0  0
  9 33  1  0  0  0  0
  9 41  2  0  0  0  0
 10 34  1  0  0  0  0
 10 42  2  0  0  0  0
 11 30  1  0  0  0  0
 11 43  2  0  0  0  0
 12 29  1  0  0  0  0
 12 44  2  0  0  0  0
 13 38  2  0  0  0  0
 13 43  1  0  0  0  0
 14 37  2  0  0  0  0
 14 44  1  0  0  0  0
 15 44  1  0  0  0  0
 15 85  1  0  0  0  0
 15 86  1  0  0  0  0
 16 43  1  0  0  0  0
 16 83  1  0  0  0  0
 16 84  1  0  0  0  0
 17 19  1  0  0  0  0
 17 22  1  0  0  0  0
 17 49  1  0  0  0  0
 18 20  1  0  0  0  0
 18 21  1  0  0  0  0
 18 50  1  0  0  0  0
 19 22  1  0  0  0  0
 19 56  1  0  0  0  0
 19 57  1  0  0  0  0
 20 21  1  0  0  0  0
 20 53  1  0  0  0  0
 20 54  1  0  0  0  0
 21 52  1  0  0  0  0
 21 58  1  0  0  0  0
 22 51  1  0  0  0  0
 22 55  1  0  0  0  0
 23 25  1  0  0  0  0
 23 32  1  0  0  0  0
 23 61  1  0  0  0  0
 24 26  1  0  0  0  0
 24 31  1  0  0  0  0
 24 62  1  0  0  0  0
 25 27  1  0  0  0  0
 25 65  1  0  0  0  0
 25 66  1  0  0  0  0
 26 28  1  0  0  0  0
 26 63  1  0  0  0  0
 26 64  1  0  0  0  0
 27 36  1  0  0  0  0
 27 40  1  0  0  0  0
 27 67  1  0  0  0  0
 28 35  1  0  0  0  0
 28 39  1  0  0  0  0
 28 68  1  0  0  0  0
 29 33  2  0  0  0  0
 30 34  2  0  0  0  0
 31 35  2  0  0  0  0
 31 69  1  0  0  0  0
 32 36  2  0  0  0  0
 32 70  1  0  0  0  0
 33 37  1  0  0  0  0
 34 38  1  0  0  0  0
 35 71  1  0  0  0  0
 36 72  1  0  0  0  0
 39 73  1  0  0  0  0
 39 74  1  0  0  0  0
 40 75  1  0  0  0  0
 40 76  1  0  0  0  0
 41 78  1  0  0  0  0
 42 77  1  0  0  0  0
 45 48  1  0  0  0  0
 46 47  1  0  0  0  0
 47 48  1  0  0  0  0
 47 80  1  0  0  0  0
 47 81  1  0  0  0  0
 48 79  1  0  0  0  0
 48 82  1  0  0  0  0
M  END
> <PUBCHEM_COMPOUND_CID>
90667031

> <PUBCHEM_CONFORMER_RMSD>
1.4

> <PUBCHEM_CONFORMER_DIVERSEORDER>
1
117
274
34
227
137
43
49
194
56
75
181
148
123
265
135
296
118
28
81
233
189
99
36
92
22
279
239
222
116
243
214
295
285
108
4
19
100
90
3
242
62
42
79
76
284
266
262
14
86
78
96
207
128
203
2
208
26
10
124
255
121
294
58
153
200
39
71
55
251
215
17
206
288
221
257
97
21
61
33
174
268
50
196
114
29
171
176
236
12
16
195
170
20
229
235
289
64
192
85
120
198
11
191
237
72
122
282
166
281
138
32
74
230
5
98
205
149
37
115
91
88
218
179
13
241
232
152
139
292
7
103
84
89
23
252
87
133
159
169
63
212
167
113
67
156
290
178
51
264
280
35
187
18
162
155
101
25
223
291
48
286
44
73
157
234
245
249
127
94
144
8
220
136
40
60
143
66
267
263
271
140
110
193
104
188
256
253
287
68
202
106
141
184
80
213
70
15
240
219
47
269
244
83
204
277
225
53
209
45
180
27
177
210
254
261
297
161
293
182
41
211
112
150
31
46
131
9
231
146
165
185
111
158
65
217
168
95
107
228
93
248
109
54
224
260
197
24
160
173
283
145
52
6
270
273
258
278
130
272
163
199
276
190
30
259
132
201
216
57
134
119
154
142
226
238
247
82
77
172
126
183
151
69
38
186
250
129
59
164
125
175
105
147
246
102
275

> <PUBCHEM_MMFF94_PARTIAL_CHARGES>
68
1 -0.43
10 -0.57
11 -0.62
12 -0.62
13 -0.57
14 -0.57
15 -0.9
16 -0.9
17 0.07
18 0.07
19 -0.2
2 -0.43
20 -0.2
21 -0.2
22 -0.2
23 0.39
24 0.39
27 0.14
28 0.14
29 0.41
3 -0.57
30 0.41
31 -0.29
32 -0.29
33 0.23
34 0.23
35 -0.29
36 -0.29
37 0.11
38 0.11
39 0.28
4 -0.57
40 0.28
41 0.04
42 0.04
43 0.72
44 0.72
45 0.66
46 0.66
47 0.06
48 0.06
49 0.1
5 -0.67
50 0.1
51 0.1
52 0.1
53 0.1
54 0.1
55 0.1
56 0.1
57 0.1
58 0.1
59 0.4
6 -0.67
60 0.4
69 0.15
7 0.05
70 0.15
71 0.15
72 0.15
77 0.15
78 0.15
8 0.05
83 0.4
84 0.4
85 0.4
86 0.4
9 -0.57

> <PUBCHEM_EFFECTIVE_ROTOR_COUNT>
17.4

> <PUBCHEM_PHARMACOPHORE_FEATURES>
18
1 15 donor
1 16 donor
1 3 acceptor
1 4 acceptor
1 5 cation
1 5 donor
1 6 cation
1 6 donor
3 7 10 42 cation
3 8 9 41 cation
4 11 13 16 43 cation
4 12 14 15 44 cation
5 23 25 27 32 36 rings
5 24 26 28 31 35 rings
5 7 10 34 38 42 rings
5 8 9 33 37 41 rings
6 11 13 30 34 38 43 rings
6 12 14 29 33 37 44 rings

> <PUBCHEM_HEAVY_ATOM_COUNT>
48

> <PUBCHEM_ATOM_DEF_STEREO_COUNT>
4

> <PUBCHEM_ATOM_UDEF_STEREO_COUNT>
0

> <PUBCHEM_BOND_DEF_STEREO_COUNT>
0

> <PUBCHEM_BOND_UDEF_STEREO_COUNT>
0

> <PUBCHEM_ISOTOPIC_ATOM_COUNT>
0

> <PUBCHEM_COMPONENT_COUNT>
1

> <PUBCHEM_CACTVS_TAUTO_COUNT>
21

> <PUBCHEM_CONFORMER_ID>
0567781700000001

> <PUBCHEM_MMFF94_ENERGY>
98.6357

> <PUBCHEM_FEATURE_SELFOVERLAP>
91.62

> <PUBCHEM_SHAPE_FINGERPRINT>
10032420 55 18191019011208986837
10581848 127 14834445255779186372
10974685 15 17970622995963568596
11170278 133 17827071810762087109
11399939 17 14526788424404310529
11828532 37 17533783977844744283
12156800 1 18113627776870207336
12355185 283 17988368045248865094
131258 38 17390769091217064058
13636023 20 18342734156510171187
15781502 589 17181093752734008739
15968369 153 18342737437870103100
20764821 26 18041575706038974129
21779490 112 18187368700954760546
22121540 332 18194095603699680504
24941158 1 17489011760480156529
437795 70 18335148613284511227
508180 173 18336844042913983939

> <PUBCHEM_SHAPE_MULTIPOLES>
904.57
14.85
5.99
3.49
7.35
3.03
0.37
-4.92
6.41
4.62
-0.73
-4.98
0.08
5.02

> <PUBCHEM_SHAPE_SELFOVERLAP>
1961.682

> <PUBCHEM_SHAPE_VOLUME>
493.1

> <PUBCHEM_COORDINATE_TYPE>
2
5
10

$$$$