164
 OpenBabel03292022013D

 83 85  0  0  1  0  0  0  0  0999 V2000
    4.1618   -3.7837    0.6723 C   0  0  0  0  0  0  0  0  0  0  0  0
    5.1117   -2.7251    0.6459 O   0  0  0  0  0  0  0  0  0  0  0  0
    4.9646   -1.7687    1.6124 C   0  0  0  0  0  0  0  0  0  0  0  0
    6.1305   -1.0832    1.9493 C   0  0  0  0  0  0  0  0  0  0  0  0
    6.1039   -0.0600    2.9006 C   0  0  0  0  0  0  0  0  0  0  0  0
    4.9004    0.3187    3.5151 C   0  0  0  0  0  0  0  0  0  0  0  0
    4.8867    1.5043    4.4653 C   0  0  3  0  0  0  0  0  0  0  0  0
    3.9616    2.6133    3.9545 C   0  0  0  0  0  0  0  0  0  0  0  0
    4.5474    1.1138    5.8202 N   0  0  0  0  0  0  0  0  0  0  0  0
    4.9752    1.8447    6.9090 C   0  0  0  0  0  0  0  0  0  0  0  0
    5.6911    2.8364    6.8172 O   0  0  0  0  0  0  0  0  0  0  0  0
    4.5221    1.3178    8.2024 C   0  0  0  0  0  0  0  0  0  0  0  0
    4.8991    1.8632    9.4162 C   0  0  0  0  0  0  0  0  0  0  0  0
    4.2959    0.9233   10.7094 S   0  0  0  0  0  0  0  0  0  0  0  0
    3.5783   -0.1616    9.5769 C   0  0  0  0  0  0  0  0  0  0  0  0
    2.9504   -1.4525   10.0766 C   0  0  1  0  0  0  0  0  0  0  0  0
    1.5840   -1.1682   10.4938 N   0  0  0  0  0  0  0  0  0  0  0  0
    1.1593   -1.3795   11.7869 C   0  0  0  0  0  0  0  0  0  0  0  0
    1.8923   -1.7889   12.6801 O   0  0  0  0  0  0  0  0  0  0  0  0
   -0.2711   -1.1282   11.9964 C   0  0  0  0  0  0  0  0  0  0  0  0
   -0.9011   -1.2958   13.2158 C   0  0  0  0  0  0  0  0  0  0  0  0
   -2.5902   -1.1169   13.0423 S   0  0  0  0  0  0  0  0  0  0  0  0
   -2.3815   -0.8217   11.3560 C   0  0  0  0  0  0  0  0  0  0  0  0
   -3.5959   -0.7720   10.4356 C   0  0  1  0  0  0  0  0  0  0  0  0
   -4.1484    0.5777   10.4463 N   0  0  0  0  0  0  0  0  0  0  0  0
   -5.1139    0.9212   11.3487 C   0  0  0  0  0  0  0  0  0  0  0  0
   -5.5993    0.1244   12.1429 O   0  0  0  0  0  0  0  0  0  0  0  0
   -5.4567    2.2287   11.2390 O   0  0  0  0  0  0  0  0  0  0  0  0
   -6.5057    2.7531   12.1123 C   0  0  0  0  0  0  0  0  0  0  0  0
   -6.0430    2.7776   13.5758 C   0  0  0  0  0  0  0  0  0  0  0  0
   -6.7615    4.2027   11.6621 C   0  0  0  0  0  0  0  0  0  0  0  0
   -7.8266    1.9830   11.9531 C   0  0  0  0  0  0  0  0  0  0  0  0
   -3.2318   -1.2662    9.0059 C   0  0  0  0  0  0  0  0  0  0  0  0
   -2.7310   -2.7230    9.0214 C   0  0  0  0  0  0  0  0  0  0  0  0
   -4.4266   -1.1894    8.0491 C   0  0  0  0  0  0  0  0  0  0  0  0
   -1.1232   -0.7625   10.9511 N   0  0  0  0  0  0  0  0  0  0  0  0
    3.0099   -2.5744    9.0018 C   0  0  0  0  0  0  0  0  0  0  0  0
    4.4603   -2.9093    8.6144 C   0  0  0  0  0  0  0  0  0  0  0  0
    2.3364   -3.8678    9.4779 C   0  0  0  0  0  0  0  0  0  0  0  0
    3.6977    0.1922    8.3080 N   0  0  0  0  0  0  0  0  0  0  0  0
    3.7327   -0.3814    3.1732 C   0  0  0  0  0  0  0  0  0  0  0  0
    3.7636   -1.4140    2.2252 C   0  0  0  0  0  0  0  0  0  0  0  0
    4.4812   -4.5355   -0.0563 H   0  0  0  0  0  0  0  0  0  0  0  0
    3.1678   -3.4377    0.3733 H   0  0  0  0  0  0  0  0  0  0  0  0
    4.1346   -4.2617    1.6573 H   0  0  0  0  0  0  0  0  0  0  0  0
    7.0681   -1.3452    1.4650 H   0  0  0  0  0  0  0  0  0  0  0  0
    7.0325    0.4550    3.1392 H   0  0  0  0  0  0  0  0  0  0  0  0
    5.8985    1.9294    4.4997 H   0  0  0  0  0  0  0  0  0  0  0  0
    2.9171    2.2866    3.9069 H   0  0  0  0  0  0  0  0  0  0  0  0
    4.2588    2.9340    2.9493 H   0  0  0  0  0  0  0  0  0  0  0  0
    3.9973    3.4892    4.6107 H   0  0  0  0  0  0  0  0  0  0  0  0
    3.9356    0.3260    6.0024 H   0  0  0  0  0  0  0  0  0  0  0  0
    5.5196    2.7318    9.5905 H   0  0  0  0  0  0  0  0  0  0  0  0
    3.5228   -1.8012   10.9462 H   0  0  0  0  0  0  0  0  0  0  0  0
    0.9049   -0.8088    9.8309 H   0  0  0  0  0  0  0  0  0  0  0  0
   -0.4571   -1.5637   14.1647 H   0  0  0  0  0  0  0  0  0  0  0  0
   -4.3588   -1.4576   10.8294 H   0  0  0  0  0  0  0  0  0  0  0  0
   -3.6909    1.3307    9.9511 H   0  0  0  0  0  0  0  0  0  0  0  0
   -5.1614    3.4176   13.6970 H   0  0  0  0  0  0  0  0  0  0  0  0
   -5.7568    1.7860   13.9371 H   0  0  0  0  0  0  0  0  0  0  0  0
   -6.8330    3.1547   14.2345 H   0  0  0  0  0  0  0  0  0  0  0  0
   -5.8456    4.8029   11.7067 H   0  0  0  0  0  0  0  0  0  0  0  0
   -7.5209    4.6875   12.2875 H   0  0  0  0  0  0  0  0  0  0  0  0
   -7.1067    4.2355   10.6220 H   0  0  0  0  0  0  0  0  0  0  0  0
   -7.7493    0.9399   12.2688 H   0  0  0  0  0  0  0  0  0  0  0  0
   -8.1437    1.9697   10.9046 H   0  0  0  0  0  0  0  0  0  0  0  0
   -8.6233    2.4351   12.5537 H   0  0  0  0  0  0  0  0  0  0  0  0
   -2.4350   -0.6322    8.5951 H   0  0  0  0  0  0  0  0  0  0  0  0
   -3.5063   -3.4022    9.3934 H   0  0  0  0  0  0  0  0  0  0  0  0
   -1.8459   -2.8547    9.6497 H   0  0  0  0  0  0  0  0  0  0  0  0
   -2.4543   -3.0467    8.0125 H   0  0  0  0  0  0  0  0  0  0  0  0
   -5.2505   -1.8252    8.3918 H   0  0  0  0  0  0  0  0  0  0  0  0
   -4.1357   -1.5304    7.0489 H   0  0  0  0  0  0  0  0  0  0  0  0
   -4.7999   -0.1662    7.9497 H   0  0  0  0  0  0  0  0  0  0  0  0
    2.4814   -2.2389    8.0994 H   0  0  0  0  0  0  0  0  0  0  0  0
    5.0234   -3.2780    9.4789 H   0  0  0  0  0  0  0  0  0  0  0  0
    4.9941   -2.0430    8.2138 H   0  0  0  0  0  0  0  0  0  0  0  0
    4.4839   -3.6836    7.8402 H   0  0  0  0  0  0  0  0  0  0  0  0
    2.8304   -4.2664   10.3708 H   0  0  0  0  0  0  0  0  0  0  0  0
    2.3884   -4.6348    8.6967 H   0  0  0  0  0  0  0  0  0  0  0  0
    1.2788   -3.7125    9.7100 H   0  0  0  0  0  0  0  0  0  0  0  0
    2.7781   -0.1100    3.6185 H   0  0  0  0  0  0  0  0  0  0  0  0
    2.8294   -1.8984    1.9613 H   0  0  0  0  0  0  0  0  0  0  0  0
  1  2  1  0  0  0  0
  1 43  1  0  0  0  0
  1 44  1  0  0  0  0
  1 45  1  0  0  0  0
  2  3  1  0  0  0  0
  3  4  1  0  0  0  0
  3 42  2  0  0  0  0
  4  5  2  0  0  0  0
  4 46  1  0  0  0  0
  5  6  1  0  0  0  0
  5 47  1  0  0  0  0
  6  7  1  0  0  0  0
  6 41  2  0  0  0  0
  7  8  1  0  0  0  0
  7  9  1  0  0  0  0
  7 48  1  0  0  0  0
  8 49  1  0  0  0  0
  8 50  1  0  0  0  0
  8 51  1  0  0  0  0
  9 10  1  0  0  0  0
  9 52  1  0  0  0  0
 10 11  2  0  0  0  0
 10 12  1  0  0  0  0
 12 13  2  0  0  0  0
 12 40  1  0  0  0  0
 13 14  1  0  0  0  0
 13 53  1  0  0  0  0
 14 15  1  0  0  0  0
 15 16  1  0  0  0  0
 15 40  2  0  0  0  0
 16 17  1  0  0  0  0
 16 37  1  0  0  0  0
 16 54  1  1  0  0  0
 17 18  1  0  0  0  0
 17 55  1  0  0  0  0
 18 19  2  0  0  0  0
 18 20  1  0  0  0  0
 20 21  2  0  0  0  0
 20 36  1  0  0  0  0
 21 22  1  0  0  0  0
 21 56  1  0  0  0  0
 22 23  1  0  0  0  0
 23 24  1  0  0  0  0
 23 36  2  0  0  0  0
 24 25  1  0  0  0  0
 24 33  1  0  0  0  0
 24 57  1  1  0  0  0
 25 26  1  0  0  0  0
 25 58  1  0  0  0  0
 26 27  2  0  0  0  0
 26 28  1  0  0  0  0
 28 29  1  0  0  0  0
 29 30  1  0  0  0  0
 29 31  1  0  0  0  0
 29 32  1  0  0  0  0
 30 59  1  0  0  0  0
 30 60  1  0  0  0  0
 30 61  1  0  0  0  0
 31 62  1  0  0  0  0
 31 63  1  0  0  0  0
 31 64  1  0  0  0  0
 32 65  1  0  0  0  0
 32 66  1  0  0  0  0
 32 67  1  0  0  0  0
 33 34  1  0  0  0  0
 33 35  1  0  0  0  0
 33 68  1  0  0  0  0
 34 69  1  0  0  0  0
 34 70  1  0  0  0  0
 34 71  1  0  0  0  0
 35 72  1  0  0  0  0
 35 73  1  0  0  0  0
 35 74  1  0  0  0  0
 37 38  1  0  0  0  0
 37 39  1  0  0  0  0
 37 75  1  0  0  0  0
 38 76  1  0  0  0  0
 38 77  1  0  0  0  0
 38 78  1  0  0  0  0
 39 79  1  0  0  0  0
 39 80  1  0  0  0  0
 39 81  1  0  0  0  0
 41 42  1  0  0  0  0
 41 82  1  0  0  0  0
 42 83  1  0  0  0  0
M  END
>  <Energy>
-5.25646

$$$$