86765226
  -OEChem-03242010103D

 72 75  0     1  0  0  0  0  0999 V2000
    4.1214    3.8585   -0.1761 S   0  0  0  0  0  0  0  0  0  0  0  0
   -0.0902    3.1263   -2.1973 O   0  0  0  0  0  0  0  0  0  0  0  0
   -3.5468   -0.5453   -2.8525 O   0  0  0  0  0  0  0  0  0  0  0  0
   -4.3120    1.2891    1.5046 O   0  0  0  0  0  0  0  0  0  0  0  0
   -5.0684   -0.4166   -0.5429 O   0  0  0  0  0  0  0  0  0  0  0  0
    5.3100   -0.4747   -0.4450 O   0  0  0  0  0  0  0  0  0  0  0  0
    0.3349   -1.2253   -0.5495 O   0  0  0  0  0  0  0  0  0  0  0  0
    0.1715    3.1340    0.1063 N   0  0  0  0  0  0  0  0  0  0  0  0
    2.5733    1.7918   -0.0577 N   0  0  0  0  0  0  0  0  0  0  0  0
    3.0240   -0.9330   -0.1797 N   0  0  0  0  0  0  0  0  0  0  0  0
    1.3804    4.8698    1.4042 C   0  0  0  0  0  0  0  0  0  0  0  0
    1.3524    3.9729    0.1363 C   0  0  1  0  0  0  0  0  0  0  0  0
    0.1166    5.7319    1.5217 C   0  0  0  0  0  0  0  0  0  0  0  0
    1.5205    4.0261    2.6795 C   0  0  0  0  0  0  0  0  0  0  0  0
    2.5867    3.1058   -0.0248 C   0  0  0  0  0  0  0  0  0  0  0  0
   -0.4540    2.7802   -1.0764 C   0  0  0  0  0  0  0  0  0  0  0  0
    3.8677    1.3358   -0.2138 C   0  0  0  0  0  0  0  0  0  0  0  0
   -1.6690    1.9370   -0.9358 C   0  0  0  0  0  0  0  0  0  0  0  0
    4.8430    2.3074   -0.2971 C   0  0  0  0  0  0  0  0  0  0  0  0
   -2.4330    2.0043    0.2293 C   0  0  0  0  0  0  0  0  0  0  0  0
   -2.0467    1.0790   -1.9687 C   0  0  0  0  0  0  0  0  0  0  0  0
    4.1369   -0.0729   -0.2813 C   0  0  0  0  0  0  0  0  0  0  0  0
   -3.1883    0.2885   -1.8365 C   0  0  0  0  0  0  0  0  0  0  0  0
   -3.5746    1.2138    0.3615 C   0  0  0  0  0  0  0  0  0  0  0  0
   -3.9522    0.3559   -0.6714 C   0  0  0  0  0  0  0  0  0  0  0  0
    2.9786   -2.3477   -0.2352 C   0  0  0  0  0  0  0  0  0  0  0  0
    1.7659   -3.0314   -0.1489 C   0  0  0  0  0  0  0  0  0  0  0  0
    4.1705   -3.0574   -0.3815 C   0  0  0  0  0  0  0  0  0  0  0  0
    1.7450   -4.4248   -0.2091 C   0  0  0  0  0  0  0  0  0  0  0  0
    0.5026   -2.3204    0.0037 C   0  0  0  0  0  0  0  0  0  0  0  0
    4.1496   -4.4509   -0.4416 C   0  0  0  0  0  0  0  0  0  0  0  0
    2.9369   -5.1345   -0.3554 C   0  0  0  0  0  0  0  0  0  0  0  0
   -0.6256   -2.8641    0.8154 C   0  0  0  0  0  0  0  0  0  0  0  0
   -3.0160   -1.8689   -2.8221 C   0  0  0  0  0  0  0  0  0  0  0  0
   -3.8566    2.1911    2.5111 C   0  0  0  0  0  0  0  0  0  0  0  0
   -6.2987    0.1445   -0.9953 C   0  0  0  0  0  0  0  0  0  0  0  0
   -1.8143   -2.1432    0.9292 C   0  0  0  0  0  0  0  0  0  0  0  0
   -0.4917   -4.0941    1.4590 C   0  0  0  0  0  0  0  0  0  0  0  0
   -2.8691   -2.6524    1.6867 C   0  0  0  0  0  0  0  0  0  0  0  0
   -1.5464   -4.6035    2.2165 C   0  0  0  0  0  0  0  0  0  0  0  0
   -2.7351   -3.8825    2.3304 C   0  0  0  0  0  0  0  0  0  0  0  0
    2.2402    5.5490    1.3508 H   0  0  0  0  0  0  0  0  0  0  0  0
    1.3027    4.6339   -0.7401 H   0  0  0  0  0  0  0  0  0  0  0  0
   -0.7828    5.1252    1.6701 H   0  0  0  0  0  0  0  0  0  0  0  0
    1.5876    4.6805    3.5563 H   0  0  0  0  0  0  0  0  0  0  0  0
    2.4285    3.4158    2.6691 H   0  0  0  0  0  0  0  0  0  0  0  0
    0.6641    3.3632    2.8375 H   0  0  0  0  0  0  0  0  0  0  0  0
   -0.0235    6.3350    0.6185 H   0  0  0  0  0  0  0  0  0  0  0  0
    0.1978    6.4187    2.3712 H   0  0  0  0  0  0  0  0  0  0  0  0
   -0.1138    2.6972    0.9757 H   0  0  0  0  0  0  0  0  0  0  0  0
    5.9113    2.1957   -0.4190 H   0  0  0  0  0  0  0  0  0  0  0  0
   -2.1372    2.7099    0.9954 H   0  0  0  0  0  0  0  0  0  0  0  0
   -1.4565    1.0145   -2.8797 H   0  0  0  0  0  0  0  0  0  0  0  0
    2.1248   -0.4736   -0.0581 H   0  0  0  0  0  0  0  0  0  0  0  0
    5.1499   -2.6083   -0.4519 H   0  0  0  0  0  0  0  0  0  0  0  0
    0.8341   -5.0035   -0.3332 H   0  0  0  0  0  0  0  0  0  0  0  0
    5.0761   -5.0045   -0.5639 H   0  0  0  0  0  0  0  0  0  0  0  0
    2.9182   -6.2170   -0.4436 H   0  0  0  0  0  0  0  0  0  0  0  0
   -3.3420   -2.3895   -3.7266 H   0  0  0  0  0  0  0  0  0  0  0  0
   -3.3940   -2.4124   -1.9507 H   0  0  0  0  0  0  0  0  0  0  0  0
   -1.9215   -1.8468   -2.8060 H   0  0  0  0  0  0  0  0  0  0  0  0
   -4.5545    2.1129    3.3514 H   0  0  0  0  0  0  0  0  0  0  0  0
   -3.8913    3.2308    2.1679 H   0  0  0  0  0  0  0  0  0  0  0  0
   -2.8698    1.9075    2.8932 H   0  0  0  0  0  0  0  0  0  0  0  0
   -6.2507    0.3654   -2.0662 H   0  0  0  0  0  0  0  0  0  0  0  0
   -6.5368    1.0539   -0.4346 H   0  0  0  0  0  0  0  0  0  0  0  0
   -7.0920   -0.5885   -0.8252 H   0  0  0  0  0  0  0  0  0  0  0  0
   -1.9255   -1.1809    0.4492 H   0  0  0  0  0  0  0  0  0  0  0  0
    0.4258   -4.6480    1.5892 H   0  0  0  0  0  0  0  0  0  0  0  0
   -3.7923   -2.0883    1.7812 H   0  0  0  0  0  0  0  0  0  0  0  0
   -1.4306   -5.5423    2.7508 H   0  0  0  0  0  0  0  0  0  0  0  0
   -3.5526   -4.2740    2.9287 H   0  0  0  0  0  0  0  0  0  0  0  0
  1 15  1  0  0  0  0
  1 19  1  0  0  0  0
  2 16  2  0  0  0  0
  3 23  1  0  0  0  0
  3 34  1  0  0  0  0
  4 24  1  0  0  0  0
  4 35  1  0  0  0  0
  5 25  1  0  0  0  0
  5 36  1  0  0  0  0
  6 22  2  0  0  0  0
  7 30  2  0  0  0  0
  8 12  1  0  0  0  0
  8 16  1  0  0  0  0
  8 50  1  0  0  0  0
  9 15  2  0  0  0  0
  9 17  1  0  0  0  0
 10 22  1  0  0  0  0
 10 26  1  0  0  0  0
 10 54  1  0  0  0  0
 11 12  1  0  0  0  0
 11 13  1  0  0  0  0
 11 14  1  0  0  0  0
 11 42  1  0  0  0  0
 12 15  1  0  0  0  0
 12 43  1  0  0  0  0
 13 44  1  0  0  0  0
 13 48  1  0  0  0  0
 13 49  1  0  0  0  0
 14 45  1  0  0  0  0
 14 46  1  0  0  0  0
 14 47  1  0  0  0  0
 16 18  1  0  0  0  0
 17 19  2  0  0  0  0
 17 22  1  0  0  0  0
 18 20  2  0  0  0  0
 18 21  1  0  0  0  0
 19 51  1  0  0  0  0
 20 24  1  0  0  0  0
 20 52  1  0  0  0  0
 21 23  2  0  0  0  0
 21 53  1  0  0  0  0
 23 25  1  0  0  0  0
 24 25  2  0  0  0  0
 26 27  1  0  0  0  0
 26 28  2  0  0  0  0
 27 29  2  0  0  0  0
 27 30  1  0  0  0  0
 28 31  1  0  0  0  0
 28 55  1  0  0  0  0
 29 32  1  0  0  0  0
 29 56  1  0  0  0  0
 30 33  1  0  0  0  0
 31 32  2  0  0  0  0
 31 57  1  0  0  0  0
 32 58  1  0  0  0  0
 33 37  2  0  0  0  0
 33 38  1  0  0  0  0
 34 59  1  0  0  0  0
 34 60  1  0  0  0  0
 34 61  1  0  0  0  0
 35 62  1  0  0  0  0
 35 63  1  0  0  0  0
 35 64  1  0  0  0  0
 36 65  1  0  0  0  0
 36 66  1  0  0  0  0
 36 67  1  0  0  0  0
 37 39  1  0  0  0  0
 37 68  1  0  0  0  0
 38 40  2  0  0  0  0
 38 69  1  0  0  0  0
 39 41  2  0  0  0  0
 39 70  1  0  0  0  0
 40 41  1  0  0  0  0
 40 71  1  0  0  0  0
 41 72  1  0  0  0  0
M  END
> <PUBCHEM_COMPOUND_CID>
86765226

> <PUBCHEM_CONFORMER_RMSD>
1.2

> <PUBCHEM_CONFORMER_DIVERSEORDER>
4
31
61
51
121
82
143
124
134
30
101
125
114
110
112
46
77
122
139
50
53
65
6
96
45
130
140
141
74
116
117
91
79
55
131
22
26
83
111
5
123
107
109
100
85
39
89
11
57
93
18
142
41
92
106
14
133
34
86
35
119
38
115
95
108
71
32
56
59
88
25
80
44
105
120
73
37
23
75
27
78
128
48
28
102
138
52
104
129
69
98
60
47
136
54
84
21
132
137
97
118
62
81
87
70
68
94
2
66
113
135
103
63
67
64
76
10
29
90
24
36
19
58
1
40
15
49
20
127
17
42
9
99
33
16
43
13
72
126
7
12
8
3

> <PUBCHEM_MMFF94_PARTIAL_CHARGES>
52
1 -0.08
10 -0.55
12 0.48
15 0.2
16 0.54
17 0.14
18 0.09
19 -0.11
2 -0.57
20 -0.15
21 -0.15
22 0.72
23 0.08
24 0.08
25 0.08
26 0.12
27 0.09
28 -0.15
29 -0.15
3 -0.36
30 0.4
31 -0.15
32 -0.15
33 0.09
34 0.28
35 0.28
36 0.28
37 -0.15
38 -0.15
39 -0.15
4 -0.36
40 -0.15
41 -0.15
5 -0.36
50 0.37
51 0.15
52 0.15
53 0.15
54 0.37
55 0.15
56 0.15
57 0.15
58 0.15
6 -0.57
68 0.15
69 0.15
7 -0.57
70 0.15
71 0.15
72 0.15
8 -0.73
9 -0.57

> <PUBCHEM_EFFECTIVE_ROTOR_COUNT>
13

> <PUBCHEM_PHARMACOPHORE_FEATURES>
14
1 10 donor
1 2 acceptor
1 3 acceptor
1 4 acceptor
1 5 acceptor
1 6 acceptor
1 7 acceptor
1 8 donor
1 9 acceptor
3 11 13 14 hydrophobe
5 1 9 15 17 19 rings
6 18 20 21 23 24 25 rings
6 26 27 28 29 31 32 rings
6 33 37 38 39 40 41 rings

> <PUBCHEM_HEAVY_ATOM_COUNT>
41

> <PUBCHEM_ATOM_DEF_STEREO_COUNT>
1

> <PUBCHEM_ATOM_UDEF_STEREO_COUNT>
0

> <PUBCHEM_BOND_DEF_STEREO_COUNT>
0

> <PUBCHEM_BOND_UDEF_STEREO_COUNT>
0

> <PUBCHEM_ISOTOPIC_ATOM_COUNT>
0

> <PUBCHEM_COMPONENT_COUNT>
1

> <PUBCHEM_CACTVS_TAUTO_COUNT>
12

> <PUBCHEM_CONFORMER_ID>
052BEEAA00000004

> <PUBCHEM_MMFF94_ENERGY>
155.0315

> <PUBCHEM_FEATURE_SELFOVERLAP>
71.061

> <PUBCHEM_SHAPE_FINGERPRINT>
10721379 63 17400577967765941741
12422481 6 17609515065884292099
12788726 201 16973615376076263637
14279260 333 16748470540056817906
14725015 67 18044074783740453818
14940108 7 17769084993072778495
15264996 163 17833832672726134212
15320467 1 18338531784645785584
15351339 4 18118111481380829281
15444296 121 15236662839854326779
15484559 13 17395237729751934111
15968369 26 18120904348448461436
16067689 391 18057627412301164014
19311894 1 17114661813691914318
20764821 26 18336274526033927918
437795 96 17829894591675165651
469060 322 16525014678592001789
50150288 127 17272888413445081929

> <PUBCHEM_SHAPE_MULTIPOLES>
797.45
9.83
9.3
2.3
1.4
4.5
0.12
-2.61
-1.45
-6.86
3.99
3.14
-0.76
2.9

> <PUBCHEM_SHAPE_SELFOVERLAP>
1707.686

> <PUBCHEM_SHAPE_VOLUME>
444.7

> <PUBCHEM_COORDINATE_TYPE>
2
5
10

$$$$