25223000
  -OEChem-03242010093D

 84 89  0     1  0  0  0  0  0999 V2000
   12.4158   -1.8057    2.3051 O   0  0  0  0  0  0  0  0  0  0  0  0
   13.6539   -0.9825   -0.0415 O   0  0  0  0  0  0  0  0  0  0  0  0
   -1.3092   -0.6556    0.1258 O   0  0  0  0  0  0  0  0  0  0  0  0
   -6.3709    4.1459    1.4280 O   0  0  0  0  0  0  0  0  0  0  0  0
   -5.4675   -1.8852   -0.4059 O   0  0  0  0  0  0  0  0  0  0  0  0
   -7.5394    2.7440    0.0248 O   0  0  0  0  0  0  0  0  0  0  0  0
    7.3295   -0.0868   -0.6303 N   0  0  1  0  0  0  0  0  0  0  0  0
   -0.3775    1.3708   -0.6182 N   0  0  0  0  0  0  0  0  0  0  0  0
   -6.2947    0.2774   -0.0009 N   0  0  0  0  0  0  0  0  0  0  0  0
  -11.6447   -3.1901   -0.3770 N   0  0  0  0  0  0  0  0  0  0  0  0
    7.9704    0.9767   -1.4135 C   0  0  0  0  0  0  0  0  0  0  0  0
    8.0607   -0.3014    0.6310 C   0  0  0  0  0  0  0  0  0  0  0  0
    9.3633    0.5244   -1.8638 C   0  0  0  0  0  0  0  0  0  0  0  0
    9.5452   -0.5070    0.4341 C   0  0  0  0  0  0  0  0  0  0  0  0
   10.1762   -0.0703   -0.7435 C   0  0  0  0  0  0  0  0  0  0  0  0
    5.9303    0.2398   -0.3584 C   0  0  0  0  0  0  0  0  0  0  0  0
    5.0669    0.0294   -1.6026 C   0  0  0  0  0  0  0  0  0  0  0  0
   10.3131   -1.0791    1.4574 C   0  0  0  0  0  0  0  0  0  0  0  0
   11.5576   -0.2456   -0.8957 C   0  0  0  0  0  0  0  0  0  0  0  0
   11.6896   -1.2404    1.3006 C   0  0  0  0  0  0  0  0  0  0  0  0
   12.3107   -0.8261    0.1244 C   0  0  0  0  0  0  0  0  0  0  0  0
    3.6246    0.3839   -1.3420 C   0  0  0  0  0  0  0  0  0  0  0  0
    2.7394   -0.5887   -0.8772 C   0  0  0  0  0  0  0  0  0  0  0  0
    3.1760    1.6857   -1.5650 C   0  0  0  0  0  0  0  0  0  0  0  0
    1.4057   -0.2595   -0.6355 C   0  0  0  0  0  0  0  0  0  0  0  0
    1.8421    2.0149   -1.3236 C   0  0  0  0  0  0  0  0  0  0  0  0
    0.9569    1.0422   -0.8588 C   0  0  0  0  0  0  0  0  0  0  0  0
   11.7039   -2.2022    3.4756 C   0  0  0  0  0  0  0  0  0  0  0  0
   14.4891    0.0910    0.3876 C   0  0  0  0  0  0  0  0  0  0  0  0
   -1.4020    0.5344   -0.1555 C   0  0  0  0  0  0  0  0  0  0  0  0
   -2.7240    1.1885    0.0293 C   0  0  0  0  0  0  0  0  0  0  0  0
   -3.8946    0.4368   -0.0715 C   0  0  0  0  0  0  0  0  0  0  0  0
   -5.1350    1.0503    0.1042 C   0  0  0  0  0  0  0  0  0  0  0  0
   -2.7937    2.5540    0.3057 C   0  0  0  0  0  0  0  0  0  0  0  0
   -5.2047    2.4158    0.3805 C   0  0  0  0  0  0  0  0  0  0  0  0
   -4.0340    3.1676    0.4811 C   0  0  0  0  0  0  0  0  0  0  0  0
   -7.7769   -1.6402   -0.2705 C   0  0  0  0  0  0  0  0  0  0  0  0
   -6.3932   -1.0978   -0.2415 C   0  0  0  0  0  0  0  0  0  0  0  0
  -10.1004   -1.5214    0.4213 C   0  0  0  0  0  0  0  0  0  0  0  0
   -8.7910   -1.0119    0.4464 C   0  0  0  0  0  0  0  0  0  0  0  0
  -10.4012   -2.6758   -0.3314 C   0  0  0  0  0  0  0  0  0  0  0  0
   -6.4842    3.0878    0.5698 C   0  0  0  0  0  0  0  0  0  0  0  0
   -8.0660   -2.7777   -1.0140 C   0  0  0  0  0  0  0  0  0  0  0  0
   -9.3679   -3.2841   -1.0388 C   0  0  0  0  0  0  0  0  0  0  0  0
  -11.1402   -0.9087    1.1337 C   0  0  0  0  0  0  0  0  0  0  0  0
  -12.4226   -1.4364    1.0884 C   0  0  0  0  0  0  0  0  0  0  0  0
  -12.6200   -2.5688    0.3247 C   0  0  0  0  0  0  0  0  0  0  0  0
   -7.5653    4.8878    1.6968 C   0  0  0  0  0  0  0  0  0  0  0  0
    8.0486    1.8996   -0.8223 H   0  0  0  0  0  0  0  0  0  0  0  0
    7.4073    1.2263   -2.3179 H   0  0  0  0  0  0  0  0  0  0  0  0
    7.6515   -1.1936    1.1215 H   0  0  0  0  0  0  0  0  0  0  0  0
    7.9251    0.5523    1.3087 H   0  0  0  0  0  0  0  0  0  0  0  0
    9.8931    1.3848   -2.2898 H   0  0  0  0  0  0  0  0  0  0  0  0
    9.2649   -0.2326   -2.6523 H   0  0  0  0  0  0  0  0  0  0  0  0
    5.5432   -0.4229    0.4281 H   0  0  0  0  0  0  0  0  0  0  0  0
    5.8277    1.2636    0.0263 H   0  0  0  0  0  0  0  0  0  0  0  0
    5.1305   -1.0160   -1.9334 H   0  0  0  0  0  0  0  0  0  0  0  0
    5.4122    0.6275   -2.4529 H   0  0  0  0  0  0  0  0  0  0  0  0
    9.7759   -1.3763    2.3522 H   0  0  0  0  0  0  0  0  0  0  0  0
   12.0467    0.0715   -1.8139 H   0  0  0  0  0  0  0  0  0  0  0  0
    3.0790   -1.6056   -0.6982 H   0  0  0  0  0  0  0  0  0  0  0  0
    3.8567    2.4528   -1.9247 H   0  0  0  0  0  0  0  0  0  0  0  0
    0.7837   -1.0671   -0.2766 H   0  0  0  0  0  0  0  0  0  0  0  0
    1.5068    3.0335   -1.5014 H   0  0  0  0  0  0  0  0  0  0  0  0
   12.4361   -2.6317    4.1674 H   0  0  0  0  0  0  0  0  0  0  0  0
   10.9741   -2.9894    3.2576 H   0  0  0  0  0  0  0  0  0  0  0  0
   11.2532   -1.3433    3.9845 H   0  0  0  0  0  0  0  0  0  0  0  0
   15.5293   -0.1868    0.1968 H   0  0  0  0  0  0  0  0  0  0  0  0
   14.3659    0.2705    1.4603 H   0  0  0  0  0  0  0  0  0  0  0  0
   14.2613    1.0022   -0.1746 H   0  0  0  0  0  0  0  0  0  0  0  0
   -0.6121    2.3321   -0.8494 H   0  0  0  0  0  0  0  0  0  0  0  0
   -3.7731   -0.6107   -0.3025 H   0  0  0  0  0  0  0  0  0  0  0  0
   -1.9087    3.1713    0.4270 H   0  0  0  0  0  0  0  0  0  0  0  0
   -4.0527    4.2344    0.6884 H   0  0  0  0  0  0  0  0  0  0  0  0
   -7.1592    0.8014    0.0818 H   0  0  0  0  0  0  0  0  0  0  0  0
   -8.5930   -0.1435    1.0702 H   0  0  0  0  0  0  0  0  0  0  0  0
   -7.2957   -3.2863   -1.5877 H   0  0  0  0  0  0  0  0  0  0  0  0
   -9.5689   -4.1759   -1.6297 H   0  0  0  0  0  0  0  0  0  0  0  0
  -10.9570   -0.0165    1.7279 H   0  0  0  0  0  0  0  0  0  0  0  0
  -13.2382   -0.9755    1.6329 H   0  0  0  0  0  0  0  0  0  0  0  0
  -13.6013   -3.0260    0.2517 H   0  0  0  0  0  0  0  0  0  0  0  0
   -7.3172    5.6915    2.3950 H   0  0  0  0  0  0  0  0  0  0  0  0
   -8.3163    4.2394    2.1577 H   0  0  0  0  0  0  0  0  0  0  0  0
   -7.9505    5.3294    0.7730 H   0  0  0  0  0  0  0  0  0  0  0  0
  1 20  1  0  0  0  0
  1 28  1  0  0  0  0
  2 21  1  0  0  0  0
  2 29  1  0  0  0  0
  3 30  2  0  0  0  0
  4 42  1  0  0  0  0
  4 48  1  0  0  0  0
  5 38  2  0  0  0  0
  6 42  2  0  0  0  0
  7 11  1  0  0  0  0
  7 12  1  0  0  0  0
  7 16  1  0  0  0  0
  8 27  1  0  0  0  0
  8 30  1  0  0  0  0
  8 71  1  0  0  0  0
  9 33  1  0  0  0  0
  9 38  1  0  0  0  0
  9 75  1  0  0  0  0
 10 41  1  0  0  0  0
 10 47  2  0  0  0  0
 11 13  1  0  0  0  0
 11 49  1  0  0  0  0
 11 50  1  0  0  0  0
 12 14  1  0  0  0  0
 12 51  1  0  0  0  0
 12 52  1  0  0  0  0
 13 15  1  0  0  0  0
 13 53  1  0  0  0  0
 13 54  1  0  0  0  0
 14 15  1  0  0  0  0
 14 18  2  0  0  0  0
 15 19  2  0  0  0  0
 16 17  1  0  0  0  0
 16 55  1  0  0  0  0
 16 56  1  0  0  0  0
 17 22  1  0  0  0  0
 17 57  1  0  0  0  0
 17 58  1  0  0  0  0
 18 20  1  0  0  0  0
 18 59  1  0  0  0  0
 19 21  1  0  0  0  0
 19 60  1  0  0  0  0
 20 21  2  0  0  0  0
 22 23  2  0  0  0  0
 22 24  1  0  0  0  0
 23 25  1  0  0  0  0
 23 61  1  0  0  0  0
 24 26  2  0  0  0  0
 24 62  1  0  0  0  0
 25 27  2  0  0  0  0
 25 63  1  0  0  0  0
 26 27  1  0  0  0  0
 26 64  1  0  0  0  0
 28 65  1  0  0  0  0
 28 66  1  0  0  0  0
 28 67  1  0  0  0  0
 29 68  1  0  0  0  0
 29 69  1  0  0  0  0
 29 70  1  0  0  0  0
 30 31  1  0  0  0  0
 31 32  2  0  0  0  0
 31 34  1  0  0  0  0
 32 33  1  0  0  0  0
 32 72  1  0  0  0  0
 33 35  2  0  0  0  0
 34 36  2  0  0  0  0
 34 73  1  0  0  0  0
 35 36  1  0  0  0  0
 35 42  1  0  0  0  0
 36 74  1  0  0  0  0
 37 38  1  0  0  0  0
 37 40  2  0  0  0  0
 37 43  1  0  0  0  0
 39 40  1  0  0  0  0
 39 41  2  0  0  0  0
 39 45  1  0  0  0  0
 40 76  1  0  0  0  0
 41 44  1  0  0  0  0
 43 44  2  0  0  0  0
 43 77  1  0  0  0  0
 44 78  1  0  0  0  0
 45 46  2  0  0  0  0
 45 79  1  0  0  0  0
 46 47  1  0  0  0  0
 46 80  1  0  0  0  0
 47 81  1  0  0  0  0
 48 82  1  0  0  0  0
 48 83  1  0  0  0  0
 48 84  1  0  0  0  0
M  END
> <PUBCHEM_COMPOUND_CID>
25223000

> <PUBCHEM_CONFORMER_RMSD>
1.4

> <PUBCHEM_CONFORMER_DIVERSEORDER>
5
25
48
52
42
40
14
50
29
45
57
32
9
16
44
54
24
21
56
43
34
30
35
36
55
20
47
3
11
17
15
41
53
33
38
49
19
51
28
46
6
8
7
27
23
37
12
31
13
22
26
1
18
4
10
39
2

> <PUBCHEM_MMFF94_PARTIAL_CHARGES>
64
1 -0.36
10 -0.62
11 0.27
12 0.41
13 0.14
14 -0.14
15 -0.14
16 0.27
17 0.14
18 -0.15
19 -0.15
2 -0.36
20 0.08
21 0.08
22 -0.14
23 -0.15
24 -0.15
25 -0.15
26 -0.15
27 0.12
28 0.28
29 0.28
3 -0.57
30 0.54
31 0.09
32 -0.15
33 0.12
34 -0.15
35 0.09
36 -0.15
37 0.09
38 0.54
4 -0.43
40 -0.15
41 0.31
42 0.63
43 -0.15
44 -0.15
45 -0.15
46 -0.15
47 0.16
48 0.28
5 -0.57
59 0.15
6 -0.57
60 0.15
61 0.15
62 0.15
63 0.15
64 0.15
7 -0.81
71 0.37
72 0.15
73 0.15
74 0.15
75 0.37
76 0.15
77 0.15
78 0.15
79 0.15
8 -0.55
80 0.15
81 0.15
9 -0.55

> <PUBCHEM_EFFECTIVE_ROTOR_COUNT>
13.8

> <PUBCHEM_PHARMACOPHORE_FEATURES>
15
1 1 acceptor
1 10 acceptor
1 2 acceptor
1 3 acceptor
1 5 acceptor
1 6 acceptor
1 7 cation
1 8 donor
1 9 donor
6 10 39 41 45 46 47 rings
6 14 15 18 19 20 21 rings
6 22 23 24 25 26 27 rings
6 31 32 33 34 35 36 rings
6 37 39 40 41 43 44 rings
6 7 11 12 13 14 15 rings

> <PUBCHEM_HEAVY_ATOM_COUNT>
48

> <PUBCHEM_ATOM_DEF_STEREO_COUNT>
0

> <PUBCHEM_ATOM_UDEF_STEREO_COUNT>
0

> <PUBCHEM_BOND_DEF_STEREO_COUNT>
0

> <PUBCHEM_BOND_UDEF_STEREO_COUNT>
0

> <PUBCHEM_ISOTOPIC_ATOM_COUNT>
0

> <PUBCHEM_COMPONENT_COUNT>
1

> <PUBCHEM_CACTVS_TAUTO_COUNT>
6

> <PUBCHEM_CONFORMER_ID>
0180DF5800000005

> <PUBCHEM_MMFF94_ENERGY>
177.7908

> <PUBCHEM_FEATURE_SELFOVERLAP>
76.185

> <PUBCHEM_SHAPE_FINGERPRINT>
11672396 167 18260550043089403996
12013929 2 11891330963324978022
12013929 94 18413672417688099014
12089408 11 18259709987159331684
12498461 61 18412266143196959553
13383668 1 17385716973396110322
15061470 23 8934998167043424486
15065858 18 17988646256045026132
15145343 6 17489588970268598872
15247644 1 17530966916973879827
15274700 256 18341613733065834549
16728433 110 14548740612634744178
20737093 207 18187075144177466282
21026386 39 18113613508810229674
21102433 48 18259982678580177906
21895431 317 18334854996799849442
3092352 35 18333732413145465734
3986486 107 14634862051381913527
3991529 128 11815902262315259303
4353968 344 18260544520589857693
44389302 135 18272090512866668703

> <PUBCHEM_SHAPE_MULTIPOLES>
932.68
68.42
3.96
1.68
106.44
3.25
0.92
-53.79
23.07
-17.5
1.54
5.38
-0.35
-7.94

> <PUBCHEM_SHAPE_SELFOVERLAP>
2045.715

> <PUBCHEM_SHAPE_VOLUME>
502.1

> <PUBCHEM_COORDINATE_TYPE>
2
5
10

$$$$