56946835
  -OEChem-03242010093D

 53 56  0     0  0  0  0  0  0999 V2000
    7.6479    1.4349   -0.3931 O   0  0  0  0  0  0  0  0  0  0  0  0
    8.6606   -0.7224   -0.0354 O   0  0  0  0  0  0  0  0  0  0  0  0
   -6.6602   -2.2307    0.3103 O   0  0  0  0  0  0  0  0  0  0  0  0
   -5.4649    2.3565   -0.3739 O   0  0  0  0  0  0  0  0  0  0  0  0
   -7.4005    0.4289    0.0819 O   0  0  0  0  0  0  0  0  0  0  0  0
   -1.7282   -2.1943   -0.7530 O   0  0  0  0  0  0  0  0  0  0  0  0
    0.3266    3.0385   -0.0117 O   0  5  0  0  0  0  0  0  0  0  0  0
    0.2629    2.2838    2.0487 O   0  0  0  0  0  0  0  0  0  0  0  0
   -1.0565   -0.0639   -0.0214 N   0  0  0  0  0  0  0  0  0  0  0  0
    0.5435    2.1417    0.8359 N   0  3  0  0  0  0  0  0  0  0  0  0
    3.1190   -0.3886   -0.0105 C   0  0  0  0  0  0  0  0  0  0  0  0
    4.5611   -0.5114   -0.0105 C   0  0  0  0  0  0  0  0  0  0  0  0
    0.3391   -0.1537   -0.0111 C   0  0  0  0  0  0  0  0  0  0  0  0
    6.7229    0.4538   -0.2089 C   0  0  0  0  0  0  0  0  0  0  0  0
    5.3533    0.6206   -0.2173 C   0  0  0  0  0  0  0  0  0  0  0  0
    2.5194    0.7999    0.4061 C   0  0  0  0  0  0  0  0  0  0  0  0
    1.1294    0.9175    0.4057 C   0  0  0  0  0  0  0  0  0  0  0  0
    7.3012   -0.7781   -0.0048 C   0  0  0  0  0  0  0  0  0  0  0  0
    2.3287   -1.4597   -0.4273 C   0  0  0  0  0  0  0  0  0  0  0  0
    5.1521   -1.7700    0.1980 C   0  0  0  0  0  0  0  0  0  0  0  0
    0.9387   -1.3422   -0.4275 C   0  0  0  0  0  0  0  0  0  0  0  0
    6.5418   -1.9113    0.2020 C   0  0  0  0  0  0  0  0  0  0  0  0
   -3.4078   -0.6627   -0.2584 C   0  0  0  0  0  0  0  0  0  0  0  0
    8.8733    0.6825   -0.2815 C   0  0  0  0  0  0  0  0  0  0  0  0
   -1.9787   -1.0536   -0.3789 C   0  0  0  0  0  0  0  0  0  0  0  0
   -3.7768    0.6775   -0.3741 C   0  0  0  0  0  0  0  0  0  0  0  0
   -4.3798   -1.6365   -0.0285 C   0  0  0  0  0  0  0  0  0  0  0  0
   -5.7208   -1.2700    0.0855 C   0  0  0  0  0  0  0  0  0  0  0  0
   -5.1178    1.0440   -0.2600 C   0  0  0  0  0  0  0  0  0  0  0  0
   -6.0898    0.0702   -0.0303 C   0  0  0  0  0  0  0  0  0  0  0  0
   -6.9593   -2.5385    1.6705 C   0  0  0  0  0  0  0  0  0  0  0  0
   -4.4101    3.2875   -0.6083 C   0  0  0  0  0  0  0  0  0  0  0  0
   -8.1701    0.4499   -1.1182 C   0  0  0  0  0  0  0  0  0  0  0  0
    4.9466    1.6071   -0.4113 H   0  0  0  0  0  0  0  0  0  0  0  0
    3.1070    1.6416    0.7660 H   0  0  0  0  0  0  0  0  0  0  0  0
    2.7522   -2.3917   -0.7919 H   0  0  0  0  0  0  0  0  0  0  0  0
    4.5631   -2.6624    0.3939 H   0  0  0  0  0  0  0  0  0  0  0  0
    0.4066   -2.2137   -0.7789 H   0  0  0  0  0  0  0  0  0  0  0  0
    7.0020   -2.8785    0.3692 H   0  0  0  0  0  0  0  0  0  0  0  0
   -1.4204    0.8138    0.3347 H   0  0  0  0  0  0  0  0  0  0  0  0
    9.4659    1.0972    0.5420 H   0  0  0  0  0  0  0  0  0  0  0  0
    9.4395    0.7938   -1.2133 H   0  0  0  0  0  0  0  0  0  0  0  0
   -3.0110    1.4059   -0.6061 H   0  0  0  0  0  0  0  0  0  0  0  0
   -4.1057   -2.6843    0.0684 H   0  0  0  0  0  0  0  0  0  0  0  0
   -6.0694   -2.9189    2.1820 H   0  0  0  0  0  0  0  0  0  0  0  0
   -7.3431   -1.6551    2.1904 H   0  0  0  0  0  0  0  0  0  0  0  0
   -7.7295   -3.3145    1.6846 H   0  0  0  0  0  0  0  0  0  0  0  0
   -3.6949    3.3085    0.2213 H   0  0  0  0  0  0  0  0  0  0  0  0
   -3.9266    3.1150   -1.5759 H   0  0  0  0  0  0  0  0  0  0  0  0
   -4.8655    4.2823   -0.6567 H   0  0  0  0  0  0  0  0  0  0  0  0
   -9.1893    0.7551   -0.8659 H   0  0  0  0  0  0  0  0  0  0  0  0
   -8.2055   -0.5461   -1.5708 H   0  0  0  0  0  0  0  0  0  0  0  0
   -7.7553    1.1709   -1.8297 H   0  0  0  0  0  0  0  0  0  0  0  0
  1 14  1  0  0  0  0
  1 24  1  0  0  0  0
  2 18  1  0  0  0  0
  2 24  1  0  0  0  0
  3 28  1  0  0  0  0
  3 31  1  0  0  0  0
  4 29  1  0  0  0  0
  4 32  1  0  0  0  0
  5 30  1  0  0  0  0
  5 33  1  0  0  0  0
  6 25  2  0  0  0  0
  7 10  1  0  0  0  0
  8 10  2  0  0  0  0
  9 13  1  0  0  0  0
  9 25  1  0  0  0  0
  9 40  1  0  0  0  0
 10 17  1  0  0  0  0
 11 12  1  0  0  0  0
 11 16  2  0  0  0  0
 11 19  1  0  0  0  0
 12 15  2  0  0  0  0
 12 20  1  0  0  0  0
 13 17  2  0  0  0  0
 13 21  1  0  0  0  0
 14 15  1  0  0  0  0
 14 18  2  0  0  0  0
 15 34  1  0  0  0  0
 16 17  1  0  0  0  0
 16 35  1  0  0  0  0
 18 22  1  0  0  0  0
 19 21  2  0  0  0  0
 19 36  1  0  0  0  0
 20 22  2  0  0  0  0
 20 37  1  0  0  0  0
 21 38  1  0  0  0  0
 22 39  1  0  0  0  0
 23 25  1  0  0  0  0
 23 26  2  0  0  0  0
 23 27  1  0  0  0  0
 24 41  1  0  0  0  0
 24 42  1  0  0  0  0
 26 29  1  0  0  0  0
 26 43  1  0  0  0  0
 27 28  2  0  0  0  0
 27 44  1  0  0  0  0
 28 30  1  0  0  0  0
 29 30  2  0  0  0  0
 31 45  1  0  0  0  0
 31 46  1  0  0  0  0
 31 47  1  0  0  0  0
 32 48  1  0  0  0  0
 32 49  1  0  0  0  0
 32 50  1  0  0  0  0
 33 51  1  0  0  0  0
 33 52  1  0  0  0  0
 33 53  1  0  0  0  0
M  CHG  2   7  -1  10   1
M  END
> <PUBCHEM_COMPOUND_CID>
56946835

> <PUBCHEM_CONFORMER_RMSD>
1

> <PUBCHEM_CONFORMER_DIVERSEORDER>
1
12
15
14
9
2
16
10
11
8
5
4
6
13
7
3

> <PUBCHEM_MMFF94_PARTIAL_CHARGES>
40
1 -0.36
10 0.91
13 0.12
14 0.08
15 -0.15
16 -0.15
17 0.13
18 0.08
19 -0.15
2 -0.36
20 -0.15
21 -0.15
22 -0.15
23 0.09
24 0.56
25 0.54
26 -0.15
27 -0.15
28 0.08
29 0.08
3 -0.36
30 0.08
31 0.28
32 0.28
33 0.28
34 0.15
35 0.15
36 0.15
37 0.15
38 0.15
39 0.15
4 -0.36
40 0.37
43 0.15
44 0.15
5 -0.36
6 -0.57
7 -0.52
8 -0.52
9 -0.55

> <PUBCHEM_EFFECTIVE_ROTOR_COUNT>
8.6

> <PUBCHEM_PHARMACOPHORE_FEATURES>
14
1 1 acceptor
1 2 acceptor
1 3 acceptor
1 4 acceptor
1 5 acceptor
1 6 acceptor
1 7 acceptor
1 7 anion
1 8 acceptor
1 9 donor
5 1 2 14 18 24 rings
6 11 13 16 17 19 21 rings
6 12 14 15 18 20 22 rings
6 23 26 27 28 29 30 rings

> <PUBCHEM_HEAVY_ATOM_COUNT>
33

> <PUBCHEM_ATOM_DEF_STEREO_COUNT>
0

> <PUBCHEM_ATOM_UDEF_STEREO_COUNT>
0

> <PUBCHEM_BOND_DEF_STEREO_COUNT>
0

> <PUBCHEM_BOND_UDEF_STEREO_COUNT>
0

> <PUBCHEM_ISOTOPIC_ATOM_COUNT>
0

> <PUBCHEM_COMPONENT_COUNT>
1

> <PUBCHEM_CACTVS_TAUTO_COUNT>
2

> <PUBCHEM_CONFORMER_ID>
0364F09300000001

> <PUBCHEM_MMFF94_ENERGY>
145.9786

> <PUBCHEM_FEATURE_SELFOVERLAP>
71.3

> <PUBCHEM_SHAPE_FINGERPRINT>
10 15 18411983567960035215
10050765 1 18051976922887045670
10076449 9 17989207049165514536
100830 39 18409166576320038557
10299344 5 18260547823087242262
11135926 11 16272212976653518351
11315181 36 18333169466974944855
11646440 116 17775289373816018027
11719270 70 18130504150654336470
12082328 90 18408884022974045495
12236239 1 18333449825139040638
12645989 146 18201148975534963631
12664476 115 18272371976054748761
13885169 127 18334576832403686118
14251764 18 18273495671509302950
14933364 13 18409166610753363590
15183329 4 18412822473571848563
15439362 3 18049160270534680388
15849732 13 18060700606369717734
16087824 20 18342177709897079465
16989713 51 17560227172136596111
17686467 74 17822293547490587021
18608769 82 18409169948170228211
19611394 137 18115600390840595651
19841028 212 18042401349547451538
21267235 1 18341335564860741354
21315763 28 18334295375139438822
21792934 111 18200864124792858760
21792961 116 18272088262540272382
23559900 14 18337665413081623641
24771750 20 18053108603783608388
3004659 81 18334856117696025746
3178227 256 18341343278917826635
335352 9 18272365386820581615
350125 39 18411981378032700637
4017518 198 16415482670674340990
4073 2 18113904861694750219
4098825 35 18333448742390661156
5758199 1 17530684299324410250
6009941 240 17894634768115224482
6691757 9 16056602097328724775
999808 66 18187936109765159355

> <PUBCHEM_SHAPE_MULTIPOLES>
622.21
26.73
2.77
0.92
15.71
1.17
0.31
-3.51
-1.73
-3.38
0.4
-0.89
0.06
1.35

> <PUBCHEM_SHAPE_SELFOVERLAP>
1371.335

> <PUBCHEM_SHAPE_VOLUME>
336.1

> <PUBCHEM_COORDINATE_TYPE>
2
5
10

$$$$