134131281
  -OEChem-03242010103D

 50 53  0     0  0  0  0  0  0999 V2000
   -0.8574    3.8426    0.1588 O   0  0  0  0  0  0  0  0  0  0  0  0
   -1.3226    1.5490   -0.0602 N   0  0  0  0  0  0  0  0  0  0  0  0
   -1.2947   -2.4522   -0.1308 N   0  0  0  0  0  0  0  0  0  0  0  0
   -1.4457   -1.1833    0.2744 N   0  0  0  0  0  0  0  0  0  0  0  0
   -3.2672   -2.0450   -0.7586 N   0  0  0  0  0  0  0  0  0  0  0  0
   -2.3491   -3.0035   -0.7477 N   0  0  0  0  0  0  0  0  0  0  0  0
    5.1424    1.6598   -0.6124 C   0  0  0  0  0  0  0  0  0  0  0  0
    3.6827    1.9242   -0.4575 C   0  0  0  0  0  0  0  0  0  0  0  0
    5.7004    0.7958    0.5270 C   0  0  0  0  0  0  0  0  0  0  0  0
    0.9524    2.4179   -0.1676 C   0  0  0  0  0  0  0  0  0  0  0  0
    2.7523    1.0503   -1.0199 C   0  0  0  0  0  0  0  0  0  0  0  0
    3.2480    3.0451    0.2500 C   0  0  0  0  0  0  0  0  0  0  0  0
   -2.7132    1.4894    0.0787 C   0  0  0  0  0  0  0  0  0  0  0  0
    1.3872    1.2971   -0.8749 C   0  0  0  0  0  0  0  0  0  0  0  0
    1.8828    3.2918    0.3949 C   0  0  0  0  0  0  0  0  0  0  0  0
   -3.3958    0.2735    0.0412 C   0  0  0  0  0  0  0  0  0  0  0  0
   -0.5024    2.6815   -0.0140 C   0  0  0  0  0  0  0  0  0  0  0  0
    7.1810    0.5017    0.3448 C   0  0  0  0  0  0  0  0  0  0  0  0
   -2.6970   -0.9717   -0.1411 C   0  0  0  0  0  0  0  0  0  0  0  0
   -3.4182    2.6797    0.2568 C   0  0  0  0  0  0  0  0  0  0  0  0
   -4.7833    0.2480    0.1818 C   0  0  0  0  0  0  0  0  0  0  0  0
   -4.8058    2.6543    0.3975 C   0  0  0  0  0  0  0  0  0  0  0  0
   -5.4882    1.4384    0.3600 C   0  0  0  0  0  0  0  0  0  0  0  0
   -0.1151   -3.1566    0.0767 C   0  0  0  0  0  0  0  0  0  0  0  0
    0.9579   -2.5444    0.7244 C   0  0  0  0  0  0  0  0  0  0  0  0
   -0.0044   -4.4761   -0.3613 C   0  0  0  0  0  0  0  0  0  0  0  0
    2.1417   -3.2519    0.9342 C   0  0  0  0  0  0  0  0  0  0  0  0
    1.1792   -5.1837   -0.1515 C   0  0  0  0  0  0  0  0  0  0  0  0
    2.2523   -4.5715    0.4962 C   0  0  0  0  0  0  0  0  0  0  0  0
    5.3278    1.1678   -1.5762 H   0  0  0  0  0  0  0  0  0  0  0  0
    5.6890    2.6107   -0.6588 H   0  0  0  0  0  0  0  0  0  0  0  0
    5.5504    1.3020    1.4885 H   0  0  0  0  0  0  0  0  0  0  0  0
    5.1525   -0.1531    0.5809 H   0  0  0  0  0  0  0  0  0  0  0  0
    3.0787    0.1767   -1.5782 H   0  0  0  0  0  0  0  0  0  0  0  0
    3.9630    3.7317    0.6955 H   0  0  0  0  0  0  0  0  0  0  0  0
    0.7031    0.6104   -1.3640 H   0  0  0  0  0  0  0  0  0  0  0  0
    1.5652    4.1677    0.9545 H   0  0  0  0  0  0  0  0  0  0  0  0
    7.3605   -0.0400   -0.5893 H   0  0  0  0  0  0  0  0  0  0  0  0
    7.7642    1.4277    0.3232 H   0  0  0  0  0  0  0  0  0  0  0  0
    7.5501   -0.1137    1.1712 H   0  0  0  0  0  0  0  0  0  0  0  0
   -0.8665    0.6493   -0.1577 H   0  0  0  0  0  0  0  0  0  0  0  0
   -2.9761    3.6641    0.2917 H   0  0  0  0  0  0  0  0  0  0  0  0
   -5.3395   -0.6862    0.1617 H   0  0  0  0  0  0  0  0  0  0  0  0
   -5.3565    3.5804    0.5350 H   0  0  0  0  0  0  0  0  0  0  0  0
   -6.5685    1.4187    0.4704 H   0  0  0  0  0  0  0  0  0  0  0  0
    0.9109   -1.5184    1.0803 H   0  0  0  0  0  0  0  0  0  0  0  0
   -0.8173   -4.9883   -0.8695 H   0  0  0  0  0  0  0  0  0  0  0  0
    2.9777   -2.7750    1.4377 H   0  0  0  0  0  0  0  0  0  0  0  0
    1.2659   -6.2113   -0.4924 H   0  0  0  0  0  0  0  0  0  0  0  0
    3.1741   -5.1223    0.6592 H   0  0  0  0  0  0  0  0  0  0  0  0
  1 17  2  0  0  0  0
  2 13  1  0  0  0  0
  2 17  1  0  0  0  0
  2 41  1  0  0  0  0
  3  4  1  0  0  0  0
  3  6  1  0  0  0  0
  3 24  1  0  0  0  0
  4 19  2  0  0  0  0
  5  6  2  0  0  0  0
  5 19  1  0  0  0  0
  7  8  1  0  0  0  0
  7  9  1  0  0  0  0
  7 30  1  0  0  0  0
  7 31  1  0  0  0  0
  8 11  2  0  0  0  0
  8 12  1  0  0  0  0
  9 18  1  0  0  0  0
  9 32  1  0  0  0  0
  9 33  1  0  0  0  0
 10 14  2  0  0  0  0
 10 15  1  0  0  0  0
 10 17  1  0  0  0  0
 11 14  1  0  0  0  0
 11 34  1  0  0  0  0
 12 15  2  0  0  0  0
 12 35  1  0  0  0  0
 13 16  1  0  0  0  0
 13 20  2  0  0  0  0
 14 36  1  0  0  0  0
 15 37  1  0  0  0  0
 16 19  1  0  0  0  0
 16 21  2  0  0  0  0
 18 38  1  0  0  0  0
 18 39  1  0  0  0  0
 18 40  1  0  0  0  0
 20 22  1  0  0  0  0
 20 42  1  0  0  0  0
 21 23  1  0  0  0  0
 21 43  1  0  0  0  0
 22 23  2  0  0  0  0
 22 44  1  0  0  0  0
 23 45  1  0  0  0  0
 24 25  2  0  0  0  0
 24 26  1  0  0  0  0
 25 27  1  0  0  0  0
 25 46  1  0  0  0  0
 26 28  2  0  0  0  0
 26 47  1  0  0  0  0
 27 29  2  0  0  0  0
 27 48  1  0  0  0  0
 28 29  1  0  0  0  0
 28 49  1  0  0  0  0
 29 50  1  0  0  0  0
M  END
> <PUBCHEM_COMPOUND_CID>
134131281

> <PUBCHEM_CONFORMER_RMSD>
0.8

> <PUBCHEM_CONFORMER_DIVERSEORDER>
1
28
19
30
54
45
3
38
33
55
53
44
34
16
24
4
43
31
13
41
12
36
9
57
32
39
49
37
2
27
56
22
35
42
47
17
21
51
8
40
7
29
25
50
15
23
52
11
5
26
46
6
48
20
18
14
10

> <PUBCHEM_MMFF94_PARTIAL_CHARGES>
41
1 -0.57
10 0.09
11 -0.15
12 -0.15
13 0.12
14 -0.15
15 -0.15
16 0.05
17 0.54
19 0.46
2 -0.55
20 -0.15
21 -0.15
22 -0.15
23 -0.15
24 -0.02
25 -0.15
26 -0.15
27 -0.15
28 -0.15
29 -0.15
3 0.86
34 0.15
35 0.15
36 0.15
37 0.15
4 -0.71
41 0.37
42 0.15
43 0.15
44 0.15
45 0.15
46 0.15
47 0.15
48 0.15
49 0.15
5 -0.23
50 0.15
6 -0.42
7 0.14
8 -0.14

> <PUBCHEM_EFFECTIVE_ROTOR_COUNT>
7

> <PUBCHEM_PHARMACOPHORE_FEATURES>
8
1 1 acceptor
1 18 hydrophobe
1 2 donor
3 4 5 19 cation
5 3 4 5 6 19 rings
6 13 16 20 21 22 23 rings
6 24 25 26 27 28 29 rings
6 8 10 11 12 14 15 rings

> <PUBCHEM_HEAVY_ATOM_COUNT>
29

> <PUBCHEM_ATOM_DEF_STEREO_COUNT>
0

> <PUBCHEM_ATOM_UDEF_STEREO_COUNT>
0

> <PUBCHEM_BOND_DEF_STEREO_COUNT>
0

> <PUBCHEM_BOND_UDEF_STEREO_COUNT>
0

> <PUBCHEM_ISOTOPIC_ATOM_COUNT>
0

> <PUBCHEM_COMPONENT_COUNT>
1

> <PUBCHEM_CACTVS_TAUTO_COUNT>
246

> <PUBCHEM_CONFORMER_ID>
07FEAE5100000001

> <PUBCHEM_MMFF94_ENERGY>
82.1313

> <PUBCHEM_FEATURE_SELFOVERLAP>
40.597

> <PUBCHEM_SHAPE_FINGERPRINT>
10190108 129 18120675767012080547
10693767 8 16978977110254336751
10940486 97 17972889334758665332
1100329 8 18338237059600163694
11135926 11 18336542716445307277
11200772 71 17826817003596020388
11513181 2 18129094524622163223
11578080 2 16444447028728955759
12156800 1 16270203086814995143
12788726 201 17542227208198960560
138480 1 17977668610813153655
14028597 1 17774178824713259017
140371 6 17331404165078824885
14251757 5 17831601021120941164
14659021 117 17836074955177108696
14725015 67 18125438867703378487
14790565 3 18409733984370365720
14866123 147 18267869556794590339
15001296 14 18261109673797691114
15297060 5 18272086094014552354
15320467 1 18266740182390924586
15400415 2 18410576218714988428
15927050 60 18413110550425106695
15961568 22 17691407404058165150
16120349 306 18409440402075637384
16719943 64 18409732897891008058
167882 2 18264769853544157237
17627616 140 18336828584993869207
17859628 97 18409450318791334185
19311894 1 18194962066080614150
20642791 35 18267593398992940046
20771845 165 17608645008010134917
21133410 171 16902099223233660974
21344244 246 18337378354626232205
21796203 349 16827888333601699504
23516275 137 18117298977486386336
3383291 50 18267582588217397011
338550 245 18334299781844716276
5265222 85 18263097655029786548
5385378 56 18339091372014711185
57091435 65 18265059033037802735
613672 6 16828952098084866206
9709674 26 17693097774315310965
9981440 41 18336271218804083091

> <PUBCHEM_SHAPE_MULTIPOLES>
566.03
11.2
7.35
0.82
6.62
9.19
0.03
-8.93
-1.23
2.88
-0.3
0.3
0.11
-1.25

> <PUBCHEM_SHAPE_SELFOVERLAP>
1237.578

> <PUBCHEM_SHAPE_VOLUME>
306.4

> <PUBCHEM_COORDINATE_TYPE>
2
5
10

$$$$