134131478
  -OEChem-03242010103D

 47 50  0     0  0  0  0  0  0999 V2000
   -3.5649    2.0294    0.7996 O   0  0  0  0  0  0  0  0  0  0  0  0
    6.2496   -0.1855    0.4154 O   0  0  0  0  0  0  0  0  0  0  0  0
   -0.3421    0.8518   -2.0977 O   0  5  0  0  0  0  0  0  0  0  0  0
   -1.8033    2.3362   -2.7908 O   0  0  0  0  0  0  0  0  0  0  0  0
   -2.0636    0.2868    0.3155 N   0  0  0  0  0  0  0  0  0  0  0  0
    1.0937   -2.1174   -0.2010 N   0  0  0  0  0  0  0  0  0  0  0  0
    0.0338   -1.5001    0.3399 N   0  0  0  0  0  0  0  0  0  0  0  0
   -0.4835   -3.3727   -0.8235 N   0  0  0  0  0  0  0  0  0  0  0  0
    0.8341   -3.2316   -0.8991 N   0  0  0  0  0  0  0  0  0  0  0  0
   -0.9472    1.9414   -1.9649 N   0  3  0  0  0  0  0  0  0  0  0  0
   -2.3254   -2.1336    0.2272 C   0  0  0  0  0  0  0  0  0  0  0  0
   -2.8596   -0.8590    0.4156 C   0  0  0  0  0  0  0  0  0  0  0  0
   -0.9313   -2.3234   -0.0774 C   0  0  0  0  0  0  0  0  0  0  0  0
   -3.1462   -3.2565    0.3330 C   0  0  0  0  0  0  0  0  0  0  0  0
   -4.2147   -0.7072    0.7097 C   0  0  0  0  0  0  0  0  0  0  0  0
   -1.3588    2.6200    0.3568 C   0  0  0  0  0  0  0  0  0  0  0  0
    2.3866   -1.6323   -0.0471 C   0  0  0  0  0  0  0  0  0  0  0  0
   -2.4472    1.6187    0.5063 C   0  0  0  0  0  0  0  0  0  0  0  0
   -4.5012   -3.1046    0.6271 C   0  0  0  0  0  0  0  0  0  0  0  0
   -5.0355   -1.8301    0.8155 C   0  0  0  0  0  0  0  0  0  0  0  0
   -0.6522    2.7581   -0.8378 C   0  0  0  0  0  0  0  0  0  0  0  0
   -1.0504    3.4329    1.4474 C   0  0  0  0  0  0  0  0  0  0  0  0
    2.6121   -0.4690    0.6890 C   0  0  0  0  0  0  0  0  0  0  0  0
    3.4593   -2.3096   -0.6270 C   0  0  0  0  0  0  0  0  0  0  0  0
    0.3630    3.7090   -0.9417 C   0  0  0  0  0  0  0  0  0  0  0  0
    4.9829   -0.6603    0.2649 C   0  0  0  0  0  0  0  0  0  0  0  0
    3.9101    0.0171    0.8449 C   0  0  0  0  0  0  0  0  0  0  0  0
    4.7573   -1.8236   -0.4711 C   0  0  0  0  0  0  0  0  0  0  0  0
   -0.0352    4.3838    1.3437 C   0  0  0  0  0  0  0  0  0  0  0  0
    0.6715    4.5220    0.1490 C   0  0  0  0  0  0  0  0  0  0  0  0
    6.4083    1.0095    1.1787 C   0  0  0  0  0  0  0  0  0  0  0  0
   -1.0834    0.1326    0.0973 H   0  0  0  0  0  0  0  0  0  0  0  0
   -2.7545   -4.2617    0.1962 H   0  0  0  0  0  0  0  0  0  0  0  0
   -4.7146    0.2372    0.8641 H   0  0  0  0  0  0  0  0  0  0  0  0
   -5.1404   -3.9788    0.7104 H   0  0  0  0  0  0  0  0  0  0  0  0
   -6.0912   -1.7136    1.0432 H   0  0  0  0  0  0  0  0  0  0  0  0
   -1.5912    3.3345    2.3853 H   0  0  0  0  0  0  0  0  0  0  0  0
    1.8019    0.0871    1.1541 H   0  0  0  0  0  0  0  0  0  0  0  0
    3.3252   -3.2187   -1.2074 H   0  0  0  0  0  0  0  0  0  0  0  0
    0.9230    3.8280   -1.8662 H   0  0  0  0  0  0  0  0  0  0  0  0
    4.0141    0.9259    1.4278 H   0  0  0  0  0  0  0  0  0  0  0  0
    5.5893   -2.3550   -0.9253 H   0  0  0  0  0  0  0  0  0  0  0  0
    0.2056    5.0163    2.1931 H   0  0  0  0  0  0  0  0  0  0  0  0
    1.4622    5.2621    0.0684 H   0  0  0  0  0  0  0  0  0  0  0  0
    7.4780    1.2425    1.1956 H   0  0  0  0  0  0  0  0  0  0  0  0
    6.0957    0.8671    2.2188 H   0  0  0  0  0  0  0  0  0  0  0  0
    5.9035    1.8589    0.7061 H   0  0  0  0  0  0  0  0  0  0  0  0
  1 18  2  0  0  0  0
  2 26  1  0  0  0  0
  2 31  1  0  0  0  0
  3 10  1  0  0  0  0
  4 10  2  0  0  0  0
  5 12  1  0  0  0  0
  5 18  1  0  0  0  0
  5 32  1  0  0  0  0
  6  7  1  0  0  0  0
  6  9  1  0  0  0  0
  6 17  1  0  0  0  0
  7 13  2  0  0  0  0
  8  9  2  0  0  0  0
  8 13  1  0  0  0  0
 10 21  1  0  0  0  0
 11 12  1  0  0  0  0
 11 13  1  0  0  0  0
 11 14  2  0  0  0  0
 12 15  2  0  0  0  0
 14 19  1  0  0  0  0
 14 33  1  0  0  0  0
 15 20  1  0  0  0  0
 15 34  1  0  0  0  0
 16 18  1  0  0  0  0
 16 21  1  0  0  0  0
 16 22  2  0  0  0  0
 17 23  2  0  0  0  0
 17 24  1  0  0  0  0
 19 20  2  0  0  0  0
 19 35  1  0  0  0  0
 20 36  1  0  0  0  0
 21 25  2  0  0  0  0
 22 29  1  0  0  0  0
 22 37  1  0  0  0  0
 23 27  1  0  0  0  0
 23 38  1  0  0  0  0
 24 28  2  0  0  0  0
 24 39  1  0  0  0  0
 25 30  1  0  0  0  0
 25 40  1  0  0  0  0
 26 27  2  0  0  0  0
 26 28  1  0  0  0  0
 27 41  1  0  0  0  0
 28 42  1  0  0  0  0
 29 30  2  0  0  0  0
 29 43  1  0  0  0  0
 30 44  1  0  0  0  0
 31 45  1  0  0  0  0
 31 46  1  0  0  0  0
 31 47  1  0  0  0  0
M  CHG  2   3  -1  10   1
M  END
> <PUBCHEM_COMPOUND_CID>
134131478

> <PUBCHEM_CONFORMER_RMSD>
1

> <PUBCHEM_CONFORMER_DIVERSEORDER>
1
35
25
38
3
33
22
18
24
20
32
5
14
7
6
17
26
19
29
10
34
15
2
13
37
31
4
9
36
11
27
28
16
8
30
23
21
12

> <PUBCHEM_MMFF94_PARTIAL_CHARGES>
44
1 -0.57
10 0.91
11 0.05
12 0.12
13 0.46
14 -0.15
15 -0.15
16 0.09
17 -0.02
18 0.54
19 -0.15
2 -0.36
20 -0.15
21 0.13
22 -0.15
23 -0.15
24 -0.15
25 -0.15
26 0.08
27 -0.15
28 -0.15
29 -0.15
3 -0.52
30 -0.15
31 0.28
32 0.37
33 0.15
34 0.15
35 0.15
36 0.15
37 0.15
38 0.15
39 0.15
4 -0.52
40 0.15
41 0.15
42 0.15
43 0.15
44 0.15
5 -0.55
6 0.86
7 -0.71
8 -0.23
9 -0.42

> <PUBCHEM_EFFECTIVE_ROTOR_COUNT>
7

> <PUBCHEM_PHARMACOPHORE_FEATURES>
11
1 1 acceptor
1 2 acceptor
1 3 acceptor
1 3 anion
1 4 acceptor
1 5 donor
3 7 8 13 cation
5 6 7 8 9 13 rings
6 11 12 14 15 19 20 rings
6 16 21 22 25 29 30 rings
6 17 23 24 26 27 28 rings

> <PUBCHEM_HEAVY_ATOM_COUNT>
31

> <PUBCHEM_ATOM_DEF_STEREO_COUNT>
0

> <PUBCHEM_ATOM_UDEF_STEREO_COUNT>
0

> <PUBCHEM_BOND_DEF_STEREO_COUNT>
0

> <PUBCHEM_BOND_UDEF_STEREO_COUNT>
0

> <PUBCHEM_ISOTOPIC_ATOM_COUNT>
0

> <PUBCHEM_COMPONENT_COUNT>
1

> <PUBCHEM_CACTVS_TAUTO_COUNT>
6

> <PUBCHEM_CONFORMER_ID>
07FEAF1600000001

> <PUBCHEM_MMFF94_ENERGY>
110.1628

> <PUBCHEM_FEATURE_SELFOVERLAP>
55.904

> <PUBCHEM_SHAPE_FINGERPRINT>
10006869 2 18121214278237480059
10165383 225 16535986623816378343
10670039 82 18263100876666254262
1100329 8 18051697946890243826
11595378 159 18187068552046206178
12156800 1 11122755860067780479
13402501 40 18343300349348056090
13561361 72 18340475743222031120
138480 1 15239764557432982113
140371 6 18340221755978368907
14415360 78 17110722268341024924
14713325 29 18267870471701966602
14955137 171 18267037205139269203
15927050 60 17332815353223053966
15961568 22 18340493356713865990
17627616 140 17546164563696264602
17980427 23 18130516314138621735
18336668 15 18187928438335954589
19611394 137 17900835047766551074
20771845 171 17175180532382820911
21344244 246 17692516129065836047
21796203 349 17903679410905025248
23419403 2 18044917194847986575
238 59 17184164164539618149
23845131 108 17544765525756196545
25019877 29 17131558352489247710
469060 322 17312822654401773678
474144 1 17898587607375565972
50150288 127 15983427222818503696
57091435 65 17834404797130418699

> <PUBCHEM_SHAPE_MULTIPOLES>
584.6
10.13
6.28
1.45
12.03
5.47
-0.88
-7.75
4.06
-2.36
-0.13
-0.27
1.28
1.15

> <PUBCHEM_SHAPE_SELFOVERLAP>
1290.934

> <PUBCHEM_SHAPE_VOLUME>
313.4

> <PUBCHEM_COORDINATE_TYPE>
2
5
10

$$$$