165
 OpenBabel03292022013D

 55 60  0  0  1  0  0  0  0  0999 V2000
    0.8931    0.1503   -0.0133 O   0  0  0  0  0  0  0  0  0  0  0  0
    2.1129    0.1500    0.1688 C   0  0  0  0  0  0  0  0  0  0  0  0
    2.8118   -0.9505    0.6329 N   0  0  0  0  0  0  0  0  0  0  0  0
    2.1401   -2.1526    0.9735 C   0  0  0  0  0  0  0  0  0  0  0  0
    1.3183   -2.7673    0.0159 C   0  0  0  0  0  0  0  0  0  0  0  0
    0.6534   -3.9608    0.3036 C   0  0  0  0  0  0  0  0  0  0  0  0
    0.8034   -4.5535    1.5517 C   0  0  0  0  0  0  0  0  0  0  0  0
    1.6118   -3.9465    2.5130 C   0  0  0  0  0  0  0  0  0  0  0  0
    2.2893   -2.7389    2.2448 C   0  0  0  0  0  0  0  0  0  0  0  0
    2.9795   -2.0637    3.3408 C   0  0  0  0  0  0  0  0  0  0  0  0
    3.6664   -0.8806    3.2052 N   0  0  0  0  0  0  0  0  0  0  0  0
    3.9806   -0.4748    4.4270 N   0  0  0  0  0  0  0  0  0  0  0  0
    3.4689   -1.4145    5.2577 N   0  0  0  0  0  0  0  0  0  0  0  0
    3.4323   -1.2926    6.6646 C   0  0  0  0  0  0  0  0  0  0  0  0
    3.8991   -0.1310    7.2954 C   0  0  0  0  0  0  0  0  0  0  0  0
    3.8066   -0.0170    8.6854 C   0  0  0  0  0  0  0  0  0  0  0  0
    3.2610   -1.0550    9.4429 C   0  0  0  0  0  0  0  0  0  0  0  0
    2.8041   -2.2136    8.8178 C   0  0  0  0  0  0  0  0  0  0  0  0
    2.8861   -2.3338    7.4313 C   0  0  0  0  0  0  0  0  0  0  0  0
    2.9167   -2.4718    4.6158 N   0  0  0  0  0  0  0  0  0  0  0  0
    2.9722    1.3842   -0.1646 C   0  0  3  0  0  0  0  0  0  0  0  0
    2.0262    2.5771   -0.4706 C   0  0  0  0  0  0  0  0  0  0  0  0
    2.8208    3.8150   -0.9021 C   0  0  3  0  0  0  0  0  0  0  0  0
    3.7703    4.2218    0.2341 C   0  0  0  0  0  0  0  0  0  0  0  0
    4.7346    3.0681    0.5484 C   0  0  3  0  0  0  0  0  0  0  0  0
    5.5507    2.7421   -0.7152 C   0  0  0  0  0  0  0  0  0  0  0  0
    4.6105    2.3203   -1.8569 C   0  0  3  0  0  0  0  0  0  0  0  0
    3.6331    3.4679   -2.1594 C   0  0  0  0  0  0  0  0  0  0  0  0
    3.8163    1.0774   -1.4235 C   0  0  0  0  0  0  0  0  0  0  0  0
    3.9305    1.8209    0.9714 C   0  0  0  0  0  0  0  0  0  0  0  0
    3.6231   -0.7287    1.1998 H   0  0  0  0  0  0  0  0  0  0  0  0
    1.1882   -2.3183   -0.9665 H   0  0  0  0  0  0  0  0  0  0  0  0
    0.0125   -4.4191   -0.4458 H   0  0  0  0  0  0  0  0  0  0  0  0
    0.2712   -5.4713    1.7896 H   0  0  0  0  0  0  0  0  0  0  0  0
    1.6780   -4.4061    3.4985 H   0  0  0  0  0  0  0  0  0  0  0  0
    4.3162    0.6973    6.7260 H   0  0  0  0  0  0  0  0  0  0  0  0
    4.1533    0.8871    9.1808 H   0  0  0  0  0  0  0  0  0  0  0  0
    3.1875   -0.9599   10.5236 H   0  0  0  0  0  0  0  0  0  0  0  0
    2.3779   -3.0218    9.4071 H   0  0  0  0  0  0  0  0  0  0  0  0
    2.5140   -3.2428    6.9619 H   0  0  0  0  0  0  0  0  0  0  0  0
    1.4243    2.8136    0.4175 H   0  0  0  0  0  0  0  0  0  0  0  0
    1.3145    2.3094   -1.2625 H   0  0  0  0  0  0  0  0  0  0  0  0
    2.1311    4.6377   -1.1206 H   0  0  0  0  0  0  0  0  0  0  0  0
    3.1951    4.4839    1.1306 H   0  0  0  0  0  0  0  0  0  0  0  0
    4.3355    5.1165   -0.0545 H   0  0  0  0  0  0  0  0  0  0  0  0
    5.4117    3.3637    1.3577 H   0  0  0  0  0  0  0  0  0  0  0  0
    6.2671    1.9393   -0.5027 H   0  0  0  0  0  0  0  0  0  0  0  0
    6.1362    3.6186   -1.0196 H   0  0  0  0  0  0  0  0  0  0  0  0
    5.1963    2.0882   -2.7530 H   0  0  0  0  0  0  0  0  0  0  0  0
    2.9562    3.1770   -2.9726 H   0  0  0  0  0  0  0  0  0  0  0  0
    4.1847    4.3506   -2.5040 H   0  0  0  0  0  0  0  0  0  0  0  0
    4.5098    0.2489   -1.2279 H   0  0  0  0  0  0  0  0  0  0  0  0
    3.1652    0.7447   -2.2424 H   0  0  0  0  0  0  0  0  0  0  0  0
    3.3645    2.0289    1.8884 H   0  0  0  0  0  0  0  0  0  0  0  0
    4.6416    1.0246    1.2205 H   0  0  0  0  0  0  0  0  0  0  0  0
  1  2  2  0  0  0  0
  2  3  1  0  0  0  0
  2 21  1  0  0  0  0
  3  4  1  0  0  0  0
  3 31  1  0  0  0  0
  4  5  1  0  0  0  0
  4  9  2  0  0  0  0
  5  6  2  0  0  0  0
  5 32  1  0  0  0  0
  6  7  1  0  0  0  0
  6 33  1  0  0  0  0
  7  8  2  0  0  0  0
  7 34  1  0  0  0  0
  8  9  1  0  0  0  0
  8 35  1  0  0  0  0
  9 10  1  0  0  0  0
 10 11  1  0  0  0  0
 10 20  2  0  0  0  0
 11 12  2  0  0  0  0
 12 13  1  0  0  0  0
 13 14  1  0  0  0  0
 13 20  1  0  0  0  0
 14 15  1  0  0  0  0
 14 19  2  0  0  0  0
 15 16  2  0  0  0  0
 15 36  1  0  0  0  0
 16 17  1  0  0  0  0
 16 37  1  0  0  0  0
 17 18  2  0  0  0  0
 17 38  1  0  0  0  0
 18 19  1  0  0  0  0
 18 39  1  0  0  0  0
 19 40  1  0  0  0  0
 21 22  1  0  0  0  0
 21 29  1  0  0  0  0
 21 30  1  0  0  0  0
 22 23  1  0  0  0  0
 22 41  1  0  0  0  0
 22 42  1  0  0  0  0
 23 24  1  0  0  0  0
 23 28  1  0  0  0  0
 23 43  1  0  0  0  0
 24 25  1  0  0  0  0
 24 44  1  0  0  0  0
 24 45  1  0  0  0  0
 25 26  1  0  0  0  0
 25 30  1  0  0  0  0
 25 46  1  0  0  0  0
 26 27  1  0  0  0  0
 26 47  1  0  0  0  0
 26 48  1  0  0  0  0
 27 28  1  0  0  0  0
 27 29  1  0  0  0  0
 27 49  1  0  0  0  0
 28 50  1  0  0  0  0
 28 51  1  0  0  0  0
 29 52  1  0  0  0  0
 29 53  1  0  0  0  0
 30 54  1  0  0  0  0
 30 55  1  0  0  0  0
M  END
>  <Energy>
102.037

$$$$