9281828
  -OEChem-03242010103D

 45 48  0     0  0  0  0  0  0999 V2000
   -3.6854   -1.1642    1.5820 O   0  0  0  0  0  0  0  0  0  0  0  0
   -5.6760   -0.4681   -0.2276 O   0  0  0  0  0  0  0  0  0  0  0  0
   -0.5791    1.7060   -0.7117 N   0  0  0  0  0  0  0  0  0  0  0  0
    0.8805   -0.1183   -0.4322 N   0  0  0  0  0  0  0  0  0  0  0  0
    3.1629    0.2282    0.2585 N   0  0  0  0  0  0  0  0  0  0  0  0
    3.8800   -3.7943   -0.5082 N   0  0  0  0  0  0  0  0  0  0  0  0
    1.7073    2.1143   -0.0151 C   0  0  0  0  0  0  0  0  0  0  0  0
    0.7076    1.2157   -0.3768 C   0  0  0  0  0  0  0  0  0  0  0  0
    2.9560    1.5559    0.3035 C   0  0  0  0  0  0  0  0  0  0  0  0
   -1.8645    1.1555   -0.5869 C   0  0  0  0  0  0  0  0  0  0  0  0
    2.1141   -0.5367   -0.1070 C   0  0  0  0  0  0  0  0  0  0  0  0
    1.5025    3.5041    0.0354 C   0  0  0  0  0  0  0  0  0  0  0  0
    3.9815    2.4239    0.6702 C   0  0  0  0  0  0  0  0  0  0  0  0
   -2.1482    0.2565    0.4457 C   0  0  0  0  0  0  0  0  0  0  0  0
   -2.8701    1.5024   -1.4944 C   0  0  0  0  0  0  0  0  0  0  0  0
   -3.4255   -0.2903    0.5697 C   0  0  0  0  0  0  0  0  0  0  0  0
    2.3435   -1.9571   -0.1527 C   0  0  0  0  0  0  0  0  0  0  0  0
    2.5449    4.3482    0.4051 C   0  0  0  0  0  0  0  0  0  0  0  0
   -4.4250    0.0596   -0.3384 C   0  0  0  0  0  0  0  0  0  0  0  0
    3.7857    3.8071    0.7227 C   0  0  0  0  0  0  0  0  0  0  0  0
   -4.1471    0.9558   -1.3704 C   0  0  0  0  0  0  0  0  0  0  0  0
    1.3155   -2.8625    0.0989 C   0  0  0  0  0  0  0  0  0  0  0  0
    3.5970   -2.4737   -0.4491 C   0  0  0  0  0  0  0  0  0  0  0  0
    1.5676   -4.2289    0.0474 C   0  0  0  0  0  0  0  0  0  0  0  0
    2.8552   -4.6398   -0.2578 C   0  0  0  0  0  0  0  0  0  0  0  0
   -3.4678   -2.5482    1.3150 C   0  0  0  0  0  0  0  0  0  0  0  0
   -6.6131    0.2485    0.5741 C   0  0  0  0  0  0  0  0  0  0  0  0
   -0.5456    2.5097   -1.3329 H   0  0  0  0  0  0  0  0  0  0  0  0
    0.5436    3.9580   -0.1987 H   0  0  0  0  0  0  0  0  0  0  0  0
    4.9622    2.0256    0.9238 H   0  0  0  0  0  0  0  0  0  0  0  0
   -1.3857   -0.0174    1.1711 H   0  0  0  0  0  0  0  0  0  0  0  0
   -2.6679    2.1989   -2.3044 H   0  0  0  0  0  0  0  0  0  0  0  0
    2.3904    5.4220    0.4472 H   0  0  0  0  0  0  0  0  0  0  0  0
    4.6048    4.4589    1.0128 H   0  0  0  0  0  0  0  0  0  0  0  0
   -4.9207    1.2318   -2.0819 H   0  0  0  0  0  0  0  0  0  0  0  0
    0.3102   -2.5298    0.3458 H   0  0  0  0  0  0  0  0  0  0  0  0
    4.4486   -1.8350   -0.6661 H   0  0  0  0  0  0  0  0  0  0  0  0
    0.7817   -4.9497    0.2419 H   0  0  0  0  0  0  0  0  0  0  0  0
    3.1038   -5.6947   -0.3097 H   0  0  0  0  0  0  0  0  0  0  0  0
   -4.1061   -2.8874    0.4932 H   0  0  0  0  0  0  0  0  0  0  0  0
   -3.7245   -3.1150    2.2141 H   0  0  0  0  0  0  0  0  0  0  0  0
   -2.4157   -2.7313    1.0742 H   0  0  0  0  0  0  0  0  0  0  0  0
   -6.2580    0.3251    1.6066 H   0  0  0  0  0  0  0  0  0  0  0  0
   -7.5585   -0.3008    0.5694 H   0  0  0  0  0  0  0  0  0  0  0  0
   -6.7863    1.2473    0.1609 H   0  0  0  0  0  0  0  0  0  0  0  0
  1 16  1  0  0  0  0
  1 26  1  0  0  0  0
  2 19  1  0  0  0  0
  2 27  1  0  0  0  0
  3  8  1  0  0  0  0
  3 10  1  0  0  0  0
  3 28  1  0  0  0  0
  4  8  2  0  0  0  0
  4 11  1  0  0  0  0
  5  9  1  0  0  0  0
  5 11  2  0  0  0  0
  6 23  1  0  0  0  0
  6 25  2  0  0  0  0
  7  8  1  0  0  0  0
  7  9  1  0  0  0  0
  7 12  2  0  0  0  0
  9 13  2  0  0  0  0
 10 14  2  0  0  0  0
 10 15  1  0  0  0  0
 11 17  1  0  0  0  0
 12 18  1  0  0  0  0
 12 29  1  0  0  0  0
 13 20  1  0  0  0  0
 13 30  1  0  0  0  0
 14 16  1  0  0  0  0
 14 31  1  0  0  0  0
 15 21  2  0  0  0  0
 15 32  1  0  0  0  0
 16 19  2  0  0  0  0
 17 22  1  0  0  0  0
 17 23  2  0  0  0  0
 18 20  2  0  0  0  0
 18 33  1  0  0  0  0
 19 21  1  0  0  0  0
 20 34  1  0  0  0  0
 21 35  1  0  0  0  0
 22 24  2  0  0  0  0
 22 36  1  0  0  0  0
 23 37  1  0  0  0  0
 24 25  1  0  0  0  0
 24 38  1  0  0  0  0
 25 39  1  0  0  0  0
 26 40  1  0  0  0  0
 26 41  1  0  0  0  0
 26 42  1  0  0  0  0
 27 43  1  0  0  0  0
 27 44  1  0  0  0  0
 27 45  1  0  0  0  0
M  END
> <PUBCHEM_COMPOUND_CID>
9281828

> <PUBCHEM_CONFORMER_RMSD>
0.8

> <PUBCHEM_CONFORMER_DIVERSEORDER>
2
42
37
59
44
19
48
29
61
38
39
41
13
53
10
30
31
55
50
34
40
36
43
11
25
15
32
56
54
47
26
35
46
57
27
14
45
3
33
49
21
28
58
52
12
23
6
51
20
60
8
1
22
24
5
18
7
16
9
17
4

> <PUBCHEM_MMFF94_PARTIAL_CHARGES>
37
1 -0.36
10 0.1
11 0.62
12 -0.15
13 -0.15
14 -0.15
15 -0.15
16 0.08
18 -0.15
19 0.08
2 -0.36
20 -0.15
21 -0.15
22 -0.15
23 0.16
24 -0.15
25 0.16
26 0.28
27 0.28
28 0.4
29 0.15
3 -0.6
30 0.15
31 0.15
32 0.15
33 0.15
34 0.15
35 0.15
36 0.15
37 0.15
38 0.15
39 0.15
4 -0.62
5 -0.62
6 -0.62
8 0.41
9 0.31

> <PUBCHEM_EFFECTIVE_ROTOR_COUNT>
5

> <PUBCHEM_PHARMACOPHORE_FEATURES>
10
1 1 acceptor
1 2 acceptor
1 3 donor
1 6 acceptor
3 3 4 8 cation
3 4 5 11 cation
6 10 14 15 16 19 21 rings
6 4 5 7 8 9 11 rings
6 6 17 22 23 24 25 rings
6 7 9 12 13 18 20 rings

> <PUBCHEM_HEAVY_ATOM_COUNT>
27

> <PUBCHEM_ATOM_DEF_STEREO_COUNT>
0

> <PUBCHEM_ATOM_UDEF_STEREO_COUNT>
0

> <PUBCHEM_BOND_DEF_STEREO_COUNT>
0

> <PUBCHEM_BOND_UDEF_STEREO_COUNT>
0

> <PUBCHEM_ISOTOPIC_ATOM_COUNT>
0

> <PUBCHEM_COMPONENT_COUNT>
1

> <PUBCHEM_CACTVS_TAUTO_COUNT>
3

> <PUBCHEM_CONFORMER_ID>
008DA12400000002

> <PUBCHEM_MMFF94_ENERGY>
117.6752

> <PUBCHEM_FEATURE_SELFOVERLAP>
50.923

> <PUBCHEM_SHAPE_FINGERPRINT>
10411042 1 18124033421360666742
114674 6 18261111850560685490
12107183 9 17911811172057273209
12202916 173 17393035554102053227
12553582 1 17906172845774071786
12788726 201 17183620997015976130
13009979 54 17559678322006210712
13140716 1 18197489838912343860
13402501 40 18189340074218053103
13533116 47 18411705370559848785
13785724 45 17912655605054697359
138480 1 18267581317275816134
13955234 65 18413668023809941864
14659021 117 17256234948607527266
14790565 3 17833835245612134556
14844126 61 16967735162020666394
14863182 85 18335140933857048004
14866123 147 17907290315361453072
15840311 113 18337116666997046137
15927050 60 18124591144976549286
17138139 8 16982056777581885383
17859628 70 18411700980290824079
19319366 153 18129655451677466941
19427546 62 18122341543147506381
1979834 28 18189343527366191977
20028762 73 18128526262231773446
20505436 4 17702947083745018005
20693207 138 18115025191212846943
21049683 271 18335431123554147180
21120745 212 17766855927085311412
21133410 32 16448184281189230738
21133410 38 18055646251077889555
21197605 99 18047756185263533051
22182313 1 17822282471402842653
22440779 20 16957091000384621425
23559900 14 18337381643959263617
23845131 108 17980470484215864816
3178227 256 18411136957355507024
3421961 26 18339641140000818076
4403749 210 17832695051890931873
46194498 28 17604161354083194927
5047190 48 17758684729480352671
5309563 4 18196652882740598254
563151 74 18198922455798400321
613672 6 17834369260265394190
621550 34 18335976558278000997
6371380 46 18045222631611174081
6442390 28 18050853518050435324
653340 110 17188402206413300072
6669772 16 18270966864503130548
6679774 75 18115572869164884490
9658208 31 17837775891561237752
9709674 26 18334855009335870607
9777508 108 17405139016506961360

> <PUBCHEM_SHAPE_MULTIPOLES>
523.98
10.79
6.22
1.05
16.74
3.49
0
-0.21
1.28
-11.29
0.38
1.03
-0.06
2.52

> <PUBCHEM_SHAPE_SELFOVERLAP>
1159.795

> <PUBCHEM_SHAPE_VOLUME>
278

> <PUBCHEM_COORDINATE_TYPE>
2
5
10

$$$$