118708517
  -OEChem-03242010103D

 43 45  0     0  0  0  0  0  0999 V2000
    0.9009    2.3376    0.9028 F   0  0  0  0  0  0  0  0  0  0  0  0
   -6.3104   -1.9096    0.3958 O   0  0  0  0  0  0  0  0  0  0  0  0
   -5.1064    2.6718   -0.1978 O   0  0  0  0  0  0  0  0  0  0  0  0
   -1.3822   -1.8801   -0.7271 O   0  0  0  0  0  0  0  0  0  0  0  0
   -0.6892    0.2303    0.0444 N   0  0  0  0  0  0  0  0  0  0  0  0
    7.0736    0.9357   -0.1982 N   0  0  0  0  0  0  0  0  0  0  0  0
    3.4856   -0.0601    0.0159 C   0  0  0  0  0  0  0  0  0  0  0  0
    0.7027    0.1350    0.0354 C   0  0  0  0  0  0  0  0  0  0  0  0
   -3.0491   -0.3533   -0.1775 C   0  0  0  0  0  0  0  0  0  0  0  0
    2.8715    1.1103    0.4619 C   0  0  0  0  0  0  0  0  0  0  0  0
    2.7083   -1.1330   -0.4202 C   0  0  0  0  0  0  0  0  0  0  0  0
    1.4801    1.2078    0.4714 C   0  0  0  0  0  0  0  0  0  0  0  0
    1.3168   -1.0355   -0.4103 C   0  0  0  0  0  0  0  0  0  0  0  0
    4.9286   -0.1608    0.0048 C   0  0  0  0  0  0  0  0  0  0  0  0
   -1.6232   -0.7471   -0.3241 C   0  0  0  0  0  0  0  0  0  0  0  0
   -3.4134    0.9907   -0.2585 C   0  0  0  0  0  0  0  0  0  0  0  0
   -4.0226   -1.3279    0.0424 C   0  0  0  0  0  0  0  0  0  0  0  0
   -5.3604   -0.9583    0.1812 C   0  0  0  0  0  0  0  0  0  0  0  0
   -4.7512    1.3602   -0.1196 C   0  0  0  0  0  0  0  0  0  0  0  0
   -5.7247    0.3856    0.1000 C   0  0  0  0  0  0  0  0  0  0  0  0
    5.5631   -1.3862    0.1767 C   0  0  0  0  0  0  0  0  0  0  0  0
    5.7222    0.9604   -0.1774 C   0  0  0  0  0  0  0  0  0  0  0  0
    6.9519   -1.4518    0.1614 C   0  0  0  0  0  0  0  0  0  0  0  0
    7.6549   -0.2730   -0.0279 C   0  0  0  0  0  0  0  0  0  0  0  0
   -5.8676   -3.2641    0.4677 C   0  0  0  0  0  0  0  0  0  0  0  0
   -4.0600    3.6153   -0.4232 C   0  0  0  0  0  0  0  0  0  0  0  0
    3.4365    1.9603    0.8343 H   0  0  0  0  0  0  0  0  0  0  0  0
    3.1456   -2.0515   -0.8025 H   0  0  0  0  0  0  0  0  0  0  0  0
    0.7857   -1.9035   -0.7744 H   0  0  0  0  0  0  0  0  0  0  0  0
   -1.0318    1.1088    0.4227 H   0  0  0  0  0  0  0  0  0  0  0  0
   -2.6488    1.7238   -0.4808 H   0  0  0  0  0  0  0  0  0  0  0  0
   -3.6913   -2.3588    0.1058 H   0  0  0  0  0  0  0  0  0  0  0  0
   -6.7674    0.6736    0.2083 H   0  0  0  0  0  0  0  0  0  0  0  0
    5.0160   -2.3081    0.3525 H   0  0  0  0  0  0  0  0  0  0  0  0
    5.3137    1.9517   -0.3467 H   0  0  0  0  0  0  0  0  0  0  0  0
    7.4685   -2.3948    0.2997 H   0  0  0  0  0  0  0  0  0  0  0  0
    8.7398   -0.2702   -0.0463 H   0  0  0  0  0  0  0  0  0  0  0  0
   -5.4268   -3.5950   -0.4788 H   0  0  0  0  0  0  0  0  0  0  0  0
   -5.1964   -3.4239    1.3185 H   0  0  0  0  0  0  0  0  0  0  0  0
   -6.7534   -3.8841    0.6403 H   0  0  0  0  0  0  0  0  0  0  0  0
   -3.3345    3.6189    0.3976 H   0  0  0  0  0  0  0  0  0  0  0  0
   -3.5865    3.4661   -1.3995 H   0  0  0  0  0  0  0  0  0  0  0  0
   -4.5211    4.6084   -0.4430 H   0  0  0  0  0  0  0  0  0  0  0  0
  1 12  1  0  0  0  0
  2 18  1  0  0  0  0
  2 25  1  0  0  0  0
  3 19  1  0  0  0  0
  3 26  1  0  0  0  0
  4 15  2  0  0  0  0
  5  8  1  0  0  0  0
  5 15  1  0  0  0  0
  5 30  1  0  0  0  0
  6 22  1  0  0  0  0
  6 24  2  0  0  0  0
  7 10  2  0  0  0  0
  7 11  1  0  0  0  0
  7 14  1  0  0  0  0
  8 12  2  0  0  0  0
  8 13  1  0  0  0  0
  9 15  1  0  0  0  0
  9 16  2  0  0  0  0
  9 17  1  0  0  0  0
 10 12  1  0  0  0  0
 10 27  1  0  0  0  0
 11 13  2  0  0  0  0
 11 28  1  0  0  0  0
 13 29  1  0  0  0  0
 14 21  1  0  0  0  0
 14 22  2  0  0  0  0
 16 19  1  0  0  0  0
 16 31  1  0  0  0  0
 17 18  2  0  0  0  0
 17 32  1  0  0  0  0
 18 20  1  0  0  0  0
 19 20  2  0  0  0  0
 20 33  1  0  0  0  0
 21 23  2  0  0  0  0
 21 34  1  0  0  0  0
 22 35  1  0  0  0  0
 23 24  1  0  0  0  0
 23 36  1  0  0  0  0
 24 37  1  0  0  0  0
 25 38  1  0  0  0  0
 25 39  1  0  0  0  0
 25 40  1  0  0  0  0
 26 41  1  0  0  0  0
 26 42  1  0  0  0  0
 26 43  1  0  0  0  0
M  END
> <PUBCHEM_COMPOUND_CID>
118708517

> <PUBCHEM_CONFORMER_RMSD>
0.8

> <PUBCHEM_CONFORMER_DIVERSEORDER>
6
10
3
8
22
17
23
2
13
7
16
9
4
5
18
19
1
15
20
14
24
11
21
12

> <PUBCHEM_MMFF94_PARTIAL_CHARGES>
35
1 -0.19
10 -0.15
11 -0.15
12 0.19
13 -0.15
15 0.54
16 -0.15
17 -0.15
18 0.08
19 0.08
2 -0.36
20 -0.15
21 -0.15
22 0.16
23 -0.15
24 0.16
25 0.28
26 0.28
27 0.15
28 0.15
29 0.15
3 -0.36
30 0.37
31 0.15
32 0.15
33 0.15
34 0.15
35 0.15
36 0.15
37 0.15
4 -0.57
5 -0.55
6 -0.62
8 0.12
9 0.09

> <PUBCHEM_EFFECTIVE_ROTOR_COUNT>
6

> <PUBCHEM_PHARMACOPHORE_FEATURES>
8
1 2 acceptor
1 3 acceptor
1 4 acceptor
1 5 donor
1 6 acceptor
6 6 14 21 22 23 24 rings
6 7 8 10 11 12 13 rings
6 9 16 17 18 19 20 rings

> <PUBCHEM_HEAVY_ATOM_COUNT>
26

> <PUBCHEM_ATOM_DEF_STEREO_COUNT>
0

> <PUBCHEM_ATOM_UDEF_STEREO_COUNT>
0

> <PUBCHEM_BOND_DEF_STEREO_COUNT>
0

> <PUBCHEM_BOND_UDEF_STEREO_COUNT>
0

> <PUBCHEM_ISOTOPIC_ATOM_COUNT>
0

> <PUBCHEM_COMPONENT_COUNT>
1

> <PUBCHEM_CACTVS_TAUTO_COUNT>
5

> <PUBCHEM_CONFORMER_ID>
0713592500000006

> <PUBCHEM_MMFF94_ENERGY>
103.4758

> <PUBCHEM_FEATURE_SELFOVERLAP>
40.598

> <PUBCHEM_SHAPE_FINGERPRINT>
100830 39 18410010996654613725
10299344 5 18259705601601907650
10319926 262 18339911675938588451
10411042 1 18192996148734660035
10595046 47 18260548935304073038
11315181 36 18113338622338919271
11524674 6 16773799233674368751
11578080 2 16879890969405499439
11646440 116 17203333333652539258
11719270 70 18130784517624326318
11963148 33 18412257342367034526
12107183 9 17684922510610550771
12166972 35 18336549407972764080
12236239 1 18260830380574747722
12403259 415 18060410339542431913
12516196 113 18131632296765030656
12616971 3 14908178698378538601
12645989 146 18200027486401421231
13073987 5 18335137574881190898
13685833 64 18413109485215240234
13885169 127 18408322164390541082
14251752 14 18410009897554150256
14251764 18 18342458170717565598
14933364 13 18410293610261381276
15021287 119 17748834011576212925
15183329 4 18336824208564431104
15419008 42 17984983687426753996
15778101 99 18338235960515907693
15927050 60 18410571790799118882
17844677 252 18408610283196641301
18608769 82 18411983602567589483
20281389 69 18411135831794480920
21033648 29 17916851478965490505
21130935 74 18409164386224613850
21236236 1 18411699850957473045
21267235 1 18341055197885353266
21279426 13 18198627640278760398
21315759 40 17385441033671921066
21315763 129 18409450301490275732
21315763 28 18408040723836826854
21792961 116 18059858325087156390
23081809 10 17748831804479623254
23522609 53 18193307219118132845
23536379 177 18333449824948922296
23559900 14 18338228375714329033
23569943 247 16372394884783098378
249057 25 17822303399934438116
3004659 81 18335421249735556322
335352 9 18344143695930205836
350125 39 18413109489478552393
4073 2 18041003959781885394
4214541 1 18411136918589901361
4463277 17 18413106156868552936
465052 167 18272936033835659438
5104073 3 18342734122028477352
59755656 520 17894346700385053739
6328613 192 18410856551620177828
9831232 110 18198632043354248294
9996256 80 18409166636096178635
999808 66 18187654643225512987

> <PUBCHEM_SHAPE_MULTIPOLES>
500.22
20.71
2.84
0.7
15.96
0.94
0.01
-4.25
0.72
-5.91
0.08
-0.01
0.01
0.82

> <PUBCHEM_SHAPE_SELFOVERLAP>
1092.628

> <PUBCHEM_SHAPE_VOLUME>
273.5

> <PUBCHEM_COORDINATE_TYPE>
2
5
10

$$$$