279081
  -OEChem-03242010103D

 54 55  0     1  0  0  0  0  0999 V2000
   -2.3757    0.5890    2.4675 S   0  0  0  0  0  0  0  0  0  0  0  0
    0.0915    0.9681    1.5133 O   0  0  0  0  0  0  0  0  0  0  0  0
    0.8235   -2.4679    0.7453 O   0  0  0  0  0  0  0  0  0  0  0  0
    0.7681    0.5568   -1.2831 O   0  0  0  0  0  0  0  0  0  0  0  0
   -1.8993   -2.0646    0.8953 O   0  0  0  0  0  0  0  0  0  0  0  0
    3.5364    1.3376    0.4658 O   0  0  0  0  0  0  0  0  0  0  0  0
    2.2702   -3.1322   -0.9289 O   0  0  0  0  0  0  0  0  0  0  0  0
    1.2737   -0.9754   -2.9365 O   0  0  0  0  0  0  0  0  0  0  0  0
   -2.3173   -2.5700   -1.3198 O   0  0  0  0  0  0  0  0  0  0  0  0
    4.2452    3.5346    0.3791 O   0  0  0  0  0  0  0  0  0  0  0  0
    0.2329   -1.4465   -0.0585 C   0  0  2  0  0  0  0  0  0  0  0  0
    1.2280   -0.2974   -0.2368 C   0  0  2  0  0  0  0  0  0  0  0  0
   -1.0770   -0.9476    0.5725 C   0  0  2  0  0  0  0  0  0  0  0  0
    1.3720    0.5185    1.0585 C   0  0  1  0  0  0  0  0  0  0  0  0
   -0.8068   -0.0995    1.8224 C   0  0  2  0  0  0  0  0  0  0  0  0
    2.2450    1.7547    0.8699 C   0  0  0  0  0  0  0  0  0  0  0  0
    1.9727   -3.0149    0.2522 C   0  0  0  0  0  0  0  0  0  0  0  0
    0.6225   -0.0334   -2.5056 C   0  0  0  0  0  0  0  0  0  0  0  0
   -2.9320    1.5427    1.0629 C   0  0  0  0  0  0  0  0  0  0  0  0
   -2.2072   -2.8953   -0.1454 C   0  0  0  0  0  0  0  0  0  0  0  0
    2.8444   -3.4637    1.3858 C   0  0  0  0  0  0  0  0  0  0  0  0
   -0.4734    0.6478   -3.2678 C   0  0  0  0  0  0  0  0  0  0  0  0
    4.4506    2.3352    0.2517 C   0  0  0  0  0  0  0  0  0  0  0  0
   -2.3961   -4.2937    0.3592 C   0  0  0  0  0  0  0  0  0  0  0  0
   -2.1413    2.5788    0.5718 C   0  0  0  0  0  0  0  0  0  0  0  0
   -4.1538    1.2465    0.4637 C   0  0  0  0  0  0  0  0  0  0  0  0
    5.7644    1.7487   -0.1678 C   0  0  0  0  0  0  0  0  0  0  0  0
   -2.5751    3.3230   -0.5253 C   0  0  0  0  0  0  0  0  0  0  0  0
   -4.5876    1.9908   -0.6334 C   0  0  0  0  0  0  0  0  0  0  0  0
   -3.7983    3.0291   -1.1279 C   0  0  0  0  0  0  0  0  0  0  0  0
   -0.0022   -1.9158   -1.0170 H   0  0  0  0  0  0  0  0  0  0  0  0
    2.2266   -0.6491   -0.5172 H   0  0  0  0  0  0  0  0  0  0  0  0
   -1.5816   -0.3393   -0.1882 H   0  0  0  0  0  0  0  0  0  0  0  0
    1.8206   -0.1133    1.8365 H   0  0  0  0  0  0  0  0  0  0  0  0
   -0.3844   -0.7107    2.6283 H   0  0  0  0  0  0  0  0  0  0  0  0
    2.3101    2.3024    1.8185 H   0  0  0  0  0  0  0  0  0  0  0  0
    1.8094    2.4364    0.1290 H   0  0  0  0  0  0  0  0  0  0  0  0
    2.3206   -4.2159    1.9808 H   0  0  0  0  0  0  0  0  0  0  0  0
    3.1182   -2.6050    2.0039 H   0  0  0  0  0  0  0  0  0  0  0  0
    3.7586   -3.9109    0.9852 H   0  0  0  0  0  0  0  0  0  0  0  0
   -0.5648    0.1916   -4.2576 H   0  0  0  0  0  0  0  0  0  0  0  0
   -1.4220    0.5271   -2.7386 H   0  0  0  0  0  0  0  0  0  0  0  0
   -0.2351    1.7069   -3.3937 H   0  0  0  0  0  0  0  0  0  0  0  0
   -2.6471   -4.9507   -0.4783 H   0  0  0  0  0  0  0  0  0  0  0  0
   -1.4696   -4.6504    0.8162 H   0  0  0  0  0  0  0  0  0  0  0  0
   -3.2166   -4.3196    1.0806 H   0  0  0  0  0  0  0  0  0  0  0  0
   -1.2098    2.8731    1.0437 H   0  0  0  0  0  0  0  0  0  0  0  0
   -4.7810    0.4397    0.8345 H   0  0  0  0  0  0  0  0  0  0  0  0
    6.4832    2.5547   -0.3411 H   0  0  0  0  0  0  0  0  0  0  0  0
    6.1500    1.1013    0.6237 H   0  0  0  0  0  0  0  0  0  0  0  0
    5.6390    1.1878   -1.0974 H   0  0  0  0  0  0  0  0  0  0  0  0
   -1.9659    4.1386   -0.9038 H   0  0  0  0  0  0  0  0  0  0  0  0
   -5.5398    1.7619   -1.1028 H   0  0  0  0  0  0  0  0  0  0  0  0
   -4.1369    3.6099   -1.9808 H   0  0  0  0  0  0  0  0  0  0  0  0
  1 15  1  0  0  0  0
  1 19  1  0  0  0  0
  2 14  1  0  0  0  0
  2 15  1  0  0  0  0
  3 11  1  0  0  0  0
  3 17  1  0  0  0  0
  4 12  1  0  0  0  0
  4 18  1  0  0  0  0
  5 13  1  0  0  0  0
  5 20  1  0  0  0  0
  6 16  1  0  0  0  0
  6 23  1  0  0  0  0
  7 17  2  0  0  0  0
  8 18  2  0  0  0  0
  9 20  2  0  0  0  0
 10 23  2  0  0  0  0
 11 12  1  0  0  0  0
 11 13  1  0  0  0  0
 11 31  1  0  0  0  0
 12 14  1  0  0  0  0
 12 32  1  0  0  0  0
 13 15  1  0  0  0  0
 13 33  1  0  0  0  0
 14 16  1  0  0  0  0
 14 34  1  0  0  0  0
 15 35  1  0  0  0  0
 16 36  1  0  0  0  0
 16 37  1  0  0  0  0
 17 21  1  0  0  0  0
 18 22  1  0  0  0  0
 19 25  2  0  0  0  0
 19 26  1  0  0  0  0
 20 24  1  0  0  0  0
 21 38  1  0  0  0  0
 21 39  1  0  0  0  0
 21 40  1  0  0  0  0
 22 41  1  0  0  0  0
 22 42  1  0  0  0  0
 22 43  1  0  0  0  0
 23 27  1  0  0  0  0
 24 44  1  0  0  0  0
 24 45  1  0  0  0  0
 24 46  1  0  0  0  0
 25 28  1  0  0  0  0
 25 47  1  0  0  0  0
 26 29  2  0  0  0  0
 26 48  1  0  0  0  0
 27 49  1  0  0  0  0
 27 50  1  0  0  0  0
 27 51  1  0  0  0  0
 28 30  2  0  0  0  0
 28 52  1  0  0  0  0
 29 30  1  0  0  0  0
 29 53  1  0  0  0  0
 30 54  1  0  0  0  0
M  END
> <PUBCHEM_COMPOUND_CID>
279081

> <PUBCHEM_CONFORMER_RMSD>
1.2

> <PUBCHEM_CONFORMER_DIVERSEORDER>
1
256
279
442
232
395
196
248
167
210
384
422
128
81
41
368
73
67
381
247
378
133
184
21
333
251
233
96
231
61
207
93
425
380
46
23
276
310
337
396
387
435
332
140
329
225
214
114
63
351
320
150
323
436
15
34
95
48
305
4
126
82
353
74
441
85
430
89
121
356
262
409
390
213
2
358
229
359
16
122
144
268
306
355
100
302
406
78
246
163
194
199
134
135
325
324
5
291
68
27
203
152
347
357
412
217
391
343
383
328
434
220
171
339
124
283
195
267
258
241
290
270
415
165
28
137
22
253
218
421
286
327
185
341
433
227
360
365
224
97
221
321
367
265
153
131
37
375
11
414
35
300
219
191
385
423
160
342
397
158
86
24
307
318
245
392
284
393
234
87
379
350
317
202
403
170
216
49
178
407
103
239
249
108
69
427
192
88
209
77
420
438
9
330
182
363
373
275
179
401
242
215
331
43
55
130
208
94
334
389
295
146
424
362
316
281
180
340
439
386
274
25
90
344
429
308
109
228
428
175
84
410
132
364
297
107
26
127
416
149
10
402
169
257
338
110
322
388
372
288
187
12
278
147
418
33
39
139
236
354
142
313
289
400
314
263
166
273
119
371
79
98
408
240
399
287
83
376
437
125
200
336
319
212
164
197
172
58
352
261
303
138
235
366
157
30
70
298
105
183
211
361
56
309
264
148
411
405
426
156
222
370
36
348
301
277
161
432
155
299
244
349
177
326
250
280
186
112
52
13
31
255
19
304
188
53
159
151
312
72
65
272
374
369
45
64
174
285
181
3
14
40
189
204
382
143
136
120
345
252
417
60
145
44
116
226
71
101
6
7
346
201
431
104
413
205
99
129
106
398
254
20
173
260
230
32
377
404
315
206
66
38
91
271
47
394
111
223
17
80
117
92
259
102
51
42
18
118
238
269
293
62
57
154
76
282
294
237
115
243
193
266
311
50
141
29
419
292
440
113
190
296
54
168
198
8
176
75
335
162
123
59

> <PUBCHEM_MMFF94_PARTIAL_CHARGES>
35
1 -0.33
10 -0.57
11 0.28
12 0.28
13 0.28
14 0.28
15 0.51
16 0.28
17 0.66
18 0.66
19 0.1
2 -0.56
20 0.66
21 0.06
22 0.06
23 0.66
24 0.06
25 -0.15
26 -0.15
27 0.06
28 -0.15
29 -0.15
3 -0.43
30 -0.15
4 -0.43
47 0.15
48 0.15
5 -0.43
52 0.15
53 0.15
54 0.15
6 -0.43
7 -0.57
8 -0.57
9 -0.57

> <PUBCHEM_EFFECTIVE_ROTOR_COUNT>
12.2

> <PUBCHEM_PHARMACOPHORE_FEATURES>
7
1 10 acceptor
1 2 acceptor
1 7 acceptor
1 8 acceptor
1 9 acceptor
6 19 25 26 28 29 30 rings
6 2 11 12 13 14 15 rings

> <PUBCHEM_HEAVY_ATOM_COUNT>
30

> <PUBCHEM_ATOM_DEF_STEREO_COUNT>
0

> <PUBCHEM_ATOM_UDEF_STEREO_COUNT>
5

> <PUBCHEM_BOND_DEF_STEREO_COUNT>
0

> <PUBCHEM_BOND_UDEF_STEREO_COUNT>
0

> <PUBCHEM_ISOTOPIC_ATOM_COUNT>
0

> <PUBCHEM_COMPONENT_COUNT>
1

> <PUBCHEM_CACTVS_TAUTO_COUNT>
1

> <PUBCHEM_CONFORMER_ID>
0004422900000001

> <PUBCHEM_MMFF94_ENERGY>
78.0722

> <PUBCHEM_FEATURE_SELFOVERLAP>
35.525

> <PUBCHEM_SHAPE_FINGERPRINT>
10930396 42 17119130740654615848
11578080 2 18334867082272675124
12156800 1 17981071887344070109
12422481 6 17241052011777332276
12788726 201 17977654643917390488
12930653 34 18338800129775733130
13134695 92 17614568042619276827
14713325 29 18264485259808993795
17980427 23 17241617284691473301
20600515 1 14619068652620944979
22121540 332 16808963612331559916
23419403 2 17535176762080151828
283562 15 18124877025556082002
3380486 77 17838335185906107930
469060 322 17974591370283961923
6669772 16 18341615875779748595

> <PUBCHEM_SHAPE_MULTIPOLES>
568.41
7.83
5.26
2.31
3.64
3.35
1.64
-7.89
-0.64
1.06
-0.26
-0.44
-0.06
0.5

> <PUBCHEM_SHAPE_SELFOVERLAP>
1162.123

> <PUBCHEM_SHAPE_VOLUME>
327.8

> <PUBCHEM_COORDINATE_TYPE>
2
5
10

$$$$