127044904
  -OEChem-03242010103D

 56 59  0     0  0  0  0  0  0999 V2000
    7.1061   -1.5750    1.1243 O   0  0  0  0  0  0  0  0  0  0  0  0
    8.3953    0.8715    0.8455 O   0  0  0  0  0  0  0  0  0  0  0  0
   -3.4417   -3.1703    0.0627 O   0  0  0  0  0  0  0  0  0  0  0  0
   -9.9659    0.3598   -0.0807 O   0  0  0  0  0  0  0  0  0  0  0  0
    2.4349   -0.8287   -0.7188 N   0  0  0  0  0  0  0  0  0  0  0  0
    2.4797    1.4303   -1.3749 N   0  0  0  0  0  0  0  0  0  0  0  0
    4.4687    2.7578   -1.0781 N   0  0  0  0  0  0  0  0  0  0  0  0
    4.4648    0.4585   -0.3966 C   0  0  0  0  0  0  0  0  0  0  0  0
    3.1454    0.3919   -0.8352 C   0  0  0  0  0  0  0  0  0  0  0  0
    5.1041    1.7004   -0.5433 C   0  0  0  0  0  0  0  0  0  0  0  0
    5.1390   -0.6402    0.1639 C   0  0  0  0  0  0  0  0  0  0  0  0
    1.0734   -1.1185   -0.5363 C   0  0  0  0  0  0  0  0  0  0  0  0
    6.4591   -0.5067    0.5830 C   0  0  0  0  0  0  0  0  0  0  0  0
    6.4253    1.8059   -0.1155 C   0  0  0  0  0  0  0  0  0  0  0  0
    7.1026    0.7178    0.4428 C   0  0  0  0  0  0  0  0  0  0  0  0
   -1.6315   -1.6966   -0.1740 C   0  0  0  0  0  0  0  0  0  0  0  0
    0.5372   -2.2981   -1.0528 C   0  0  0  0  0  0  0  0  0  0  0  0
    0.2573   -0.2279    0.1614 C   0  0  0  0  0  0  0  0  0  0  0  0
   -0.8153   -2.5871   -0.8715 C   0  0  0  0  0  0  0  0  0  0  0  0
   -1.0951   -0.5170    0.3425 C   0  0  0  0  0  0  0  0  0  0  0  0
    3.1913    2.5653   -1.4648 C   0  0  0  0  0  0  0  0  0  0  0  0
   -3.0418   -1.9970    0.0140 C   0  0  0  0  0  0  0  0  0  0  0  0
   -6.3550   -0.0354    0.3567 C   0  0  0  0  0  0  0  0  0  0  0  0
   -4.0137   -0.8551    0.1167 C   0  0  0  0  0  0  0  0  0  0  0  0
   -5.3268   -1.0866    0.2626 C   0  0  0  0  0  0  0  0  0  0  0  0
   -7.6901   -0.3394    0.0904 C   0  0  0  0  0  0  0  0  0  0  0  0
   -5.9931    1.2640    0.7122 C   0  0  0  0  0  0  0  0  0  0  0  0
    7.8155   -2.4272    0.2264 C   0  0  0  0  0  0  0  0  0  0  0  0
   -8.6631    0.6559    0.1796 C   0  0  0  0  0  0  0  0  0  0  0  0
    8.6088    1.2874    2.1929 C   0  0  0  0  0  0  0  0  0  0  0  0
   -6.9661    2.2592    0.8013 C   0  0  0  0  0  0  0  0  0  0  0  0
   -8.3012    1.9553    0.5348 C   0  0  0  0  0  0  0  0  0  0  0  0
  -10.9081    1.4257    0.0287 C   0  0  0  0  0  0  0  0  0  0  0  0
    4.6557   -1.6053    0.2925 H   0  0  0  0  0  0  0  0  0  0  0  0
    2.9789   -1.6318   -1.0224 H   0  0  0  0  0  0  0  0  0  0  0  0
    6.9457    2.7570   -0.2182 H   0  0  0  0  0  0  0  0  0  0  0  0
    1.1615   -3.0000   -1.5999 H   0  0  0  0  0  0  0  0  0  0  0  0
    0.6565    0.6867    0.5919 H   0  0  0  0  0  0  0  0  0  0  0  0
   -1.2157   -3.5090   -1.2853 H   0  0  0  0  0  0  0  0  0  0  0  0
   -1.6843    0.1846    0.9253 H   0  0  0  0  0  0  0  0  0  0  0  0
    2.6850    3.4210   -1.8947 H   0  0  0  0  0  0  0  0  0  0  0  0
   -3.6274    0.1490   -0.0014 H   0  0  0  0  0  0  0  0  0  0  0  0
   -5.7001   -2.1059    0.3250 H   0  0  0  0  0  0  0  0  0  0  0  0
   -7.9842   -1.3488   -0.1890 H   0  0  0  0  0  0  0  0  0  0  0  0
   -4.9707    1.5426    0.9499 H   0  0  0  0  0  0  0  0  0  0  0  0
    8.2815   -3.2265    0.8091 H   0  0  0  0  0  0  0  0  0  0  0  0
    8.6007   -1.8700   -0.2943 H   0  0  0  0  0  0  0  0  0  0  0  0
    7.1291   -2.8764   -0.4984 H   0  0  0  0  0  0  0  0  0  0  0  0
    9.6866    1.3584    2.3627 H   0  0  0  0  0  0  0  0  0  0  0  0
    8.1918    0.5563    2.8927 H   0  0  0  0  0  0  0  0  0  0  0  0
    8.1615    2.2713    2.3660 H   0  0  0  0  0  0  0  0  0  0  0  0
   -6.6846    3.2698    1.0831 H   0  0  0  0  0  0  0  0  0  0  0  0
   -9.0050    2.7757    0.6238 H   0  0  0  0  0  0  0  0  0  0  0  0
  -10.9647    1.8093    1.0531 H   0  0  0  0  0  0  0  0  0  0  0  0
  -10.7066    2.2175   -0.7007 H   0  0  0  0  0  0  0  0  0  0  0  0
  -11.8930    1.0124   -0.2124 H   0  0  0  0  0  0  0  0  0  0  0  0
  1 13  1  0  0  0  0
  1 28  1  0  0  0  0
  2 15  1  0  0  0  0
  2 30  1  0  0  0  0
  3 22  2  0  0  0  0
  4 29  1  0  0  0  0
  4 33  1  0  0  0  0
  5  9  1  0  0  0  0
  5 12  1  0  0  0  0
  5 35  1  0  0  0  0
  6  9  2  0  0  0  0
  6 21  1  0  0  0  0
  7 10  1  0  0  0  0
  7 21  2  0  0  0  0
  8  9  1  0  0  0  0
  8 10  1  0  0  0  0
  8 11  2  0  0  0  0
 10 14  2  0  0  0  0
 11 13  1  0  0  0  0
 11 34  1  0  0  0  0
 12 17  2  0  0  0  0
 12 18  1  0  0  0  0
 13 15  2  0  0  0  0
 14 15  1  0  0  0  0
 14 36  1  0  0  0  0
 16 19  2  0  0  0  0
 16 20  1  0  0  0  0
 16 22  1  0  0  0  0
 17 19  1  0  0  0  0
 17 37  1  0  0  0  0
 18 20  2  0  0  0  0
 18 38  1  0  0  0  0
 19 39  1  0  0  0  0
 20 40  1  0  0  0  0
 21 41  1  0  0  0  0
 22 24  1  0  0  0  0
 23 25  1  0  0  0  0
 23 26  2  0  0  0  0
 23 27  1  0  0  0  0
 24 25  2  0  0  0  0
 24 42  1  0  0  0  0
 25 43  1  0  0  0  0
 26 29  1  0  0  0  0
 26 44  1  0  0  0  0
 27 31  2  0  0  0  0
 27 45  1  0  0  0  0
 28 46  1  0  0  0  0
 28 47  1  0  0  0  0
 28 48  1  0  0  0  0
 29 32  2  0  0  0  0
 30 49  1  0  0  0  0
 30 50  1  0  0  0  0
 30 51  1  0  0  0  0
 31 32  1  0  0  0  0
 31 52  1  0  0  0  0
 32 53  1  0  0  0  0
 33 54  1  0  0  0  0
 33 55  1  0  0  0  0
 33 56  1  0  0  0  0
M  END
> <PUBCHEM_COMPOUND_CID>
127044904

> <PUBCHEM_CONFORMER_RMSD>
1

> <PUBCHEM_CONFORMER_DIVERSEORDER>
1
124
126
32
69
52
76
106
66
75
122
115
55
108
30
78
98
96
84
119
9
105
129
81
102
109
89
40
71
64
97
116
113
8
83
112
63
131
103
46
87
36
53
99
54
118
120
95
128
60
7
82
50
5
57
121
35
56
111
59
100
79
123
38
15
41
44
80
85
125
47
68
94
13
77
61
12
104
25
37
114
34
58
73
3
18
42
110
130
117
93
26
11
28
29
23
22
88
14
92
27
6
101
20
31
86
70
45
67
107
74
39
127
19
62
48
24
16
132
51
72
43
49
17
90
65
33
2
4
91
10
21

> <PUBCHEM_MMFF94_PARTIAL_CHARGES>
46
1 -0.36
10 0.31
11 -0.15
12 0.1
13 0.08
14 -0.15
15 0.08
16 0.09
17 -0.15
18 -0.15
19 -0.15
2 -0.36
20 -0.15
21 0.47
22 0.47
23 0.03
24 -0.14
25 -0.18
26 -0.15
27 -0.15
28 0.28
29 0.08
3 -0.57
30 0.28
31 -0.15
32 -0.15
33 0.28
34 0.15
35 0.4
36 0.15
37 0.15
38 0.15
39 0.15
4 -0.36
40 0.15
41 0.15
42 0.15
43 0.15
44 0.15
45 0.15
5 -0.6
52 0.15
53 0.15
6 -0.62
7 -0.62
9 0.41

> <PUBCHEM_EFFECTIVE_ROTOR_COUNT>
8

> <PUBCHEM_PHARMACOPHORE_FEATURES>
11
1 1 acceptor
1 2 acceptor
1 3 acceptor
1 4 acceptor
1 5 donor
3 5 6 9 cation
3 6 7 21 cation
6 12 16 17 18 19 20 rings
6 23 26 27 29 31 32 rings
6 6 7 8 9 10 21 rings
6 8 10 11 13 14 15 rings

> <PUBCHEM_HEAVY_ATOM_COUNT>
33

> <PUBCHEM_ATOM_DEF_STEREO_COUNT>
0

> <PUBCHEM_ATOM_UDEF_STEREO_COUNT>
0

> <PUBCHEM_BOND_DEF_STEREO_COUNT>
1

> <PUBCHEM_BOND_UDEF_STEREO_COUNT>
0

> <PUBCHEM_ISOTOPIC_ATOM_COUNT>
0

> <PUBCHEM_COMPONENT_COUNT>
1

> <PUBCHEM_CACTVS_TAUTO_COUNT>
8

> <PUBCHEM_CONFORMER_ID>
07928D2800000001

> <PUBCHEM_MMFF94_ENERGY>
149.2316

> <PUBCHEM_FEATURE_SELFOVERLAP>
55.999

> <PUBCHEM_SHAPE_FINGERPRINT>
10190108 129 17095240294044022046
10391435 84 12823003240764416493
10429389 143 17132109182687816320
10533779 47 17822016363328734467
11181472 205 18334584564120467900
11456790 92 18261113010212327073
11475781 23 17845948376035886829
11476731 38 10735871790234265099
12013929 2 18272937094893210366
12107183 9 18334575767610577446
12144603 126 18187367684097706996
12539745 222 12901540231841482487
12838862 33 18341604920104478381
13248334 5 18123474874187282007
13617811 41 10591756576721837262
14117953 113 18342186556932967708
14344974 52 17489018358393668417
14347424 109 18408884053909033416
15347591 1 18118128197436055098
15419008 145 18187077300277603900
15684393 108 11600008717790472697
1577012 14 18338519754416074142
15773879 53 16415487051551168504
15840311 113 18261114071163843774
16758388 162 18409161100178564960
16989713 51 17202476896569910271
16992752 21 8935009182980709675
1818759 1 7997970181070351337
18365409 1 11311474936438152680
19302320 297 18334304188412993061
20105231 36 11530476727404302688
20554085 129 17561075900011930378
20715895 44 18340776999979102831
20721686 146 17702662306925003520
20812841 46 18113616759699143458
21150785 3 13254796832864265827
21267235 1 10665224860967063759
21591340 7 18412541025114255311
21647283 7 18041288780706995905
21774942 28 17774731861307205761
21781051 124 12829205560271682304
21792934 111 18411697673930903682
25269216 80 16056581198159624997
2851757 15 18409454683216935955
306946 40 16917058993566995752
3525247 94 18408601470958276851
3552219 110 11314309430074857207
5381727 24 17894632574616018515
54039377 194 9943519722979176985
5470011 282 11815896747603163979
6299153 45 18408608041371022842
636783 89 17895747388985644634
6371009 1 18271817812660975017
9896288 288 13407335354262757671
99344 41 18412545418111840823
9962374 69 12324254901324448523

> <PUBCHEM_SHAPE_MULTIPOLES>
640.7
34.57
3
1.14
41.46
0.5
0.12
-17.5
11.31
-0.83
-0.53
-2.2
-0.46
-1.24

> <PUBCHEM_SHAPE_SELFOVERLAP>
1400.763

> <PUBCHEM_SHAPE_VOLUME>
345.6

> <PUBCHEM_COORDINATE_TYPE>
2
5
10

$$$$