124087
  -OEChem-03242010103D

 41 44  0     0  0  0  0  0  0999 V2000
    5.6939    0.3386   -0.2228 Cl  0  0  0  0  0  0  0  0  0  0  0  0
   -2.0074   -3.8596    0.6975 N   0  0  0  0  0  0  0  0  0  0  0  0
   -2.1011    0.9965   -1.4412 N   0  0  0  0  0  0  0  0  0  0  0  0
   -0.8472   -1.4311   -0.3587 C   0  0  0  0  0  0  0  0  0  0  0  0
   -0.3120   -0.2024   -0.3538 C   0  0  0  0  0  0  0  0  0  0  0  0
   -2.3298   -1.6766   -0.4536 C   0  0  0  0  0  0  0  0  0  0  0  0
   -0.0207   -2.6829   -0.2314 C   0  0  0  0  0  0  0  0  0  0  0  0
   -2.7854   -2.6150    0.6672 C   0  0  0  0  0  0  0  0  0  0  0  0
   -0.5783   -3.5773    0.8795 C   0  0  0  0  0  0  0  0  0  0  0  0
    1.1643   -0.0380   -0.2573 C   0  0  0  0  0  0  0  0  0  0  0  0
   -1.2746    0.9171   -0.3673 C   0  0  0  0  0  0  0  0  0  0  0  0
    1.0818    1.9353    1.4565 C   0  0  0  0  0  0  0  0  0  0  0  0
    1.7865    0.9288    0.5643 C   0  0  0  0  0  0  0  0  0  0  0  0
   -0.3695    1.6779    1.8594 C   0  0  0  0  0  0  0  0  0  0  0  0
   -1.3058    1.8208    0.6939 C   0  0  0  0  0  0  0  0  0  0  0  0
    1.9803   -0.8540   -1.0734 C   0  0  0  0  0  0  0  0  0  0  0  0
    3.1965    1.0285    0.5448 C   0  0  0  0  0  0  0  0  0  0  0  0
   -2.2399    2.8581    0.6327 C   0  0  0  0  0  0  0  0  0  0  0  0
    3.3706   -0.7430   -1.0660 C   0  0  0  0  0  0  0  0  0  0  0  0
    3.9806    0.1988   -0.2533 C   0  0  0  0  0  0  0  0  0  0  0  0
   -3.0956    2.9635   -0.4577 C   0  0  0  0  0  0  0  0  0  0  0  0
   -2.9873    2.0159   -1.4592 C   0  0  0  0  0  0  0  0  0  0  0  0
   -2.9837   -0.8099   -0.3693 H   0  0  0  0  0  0  0  0  0  0  0  0
   -2.5438   -2.1375   -1.4268 H   0  0  0  0  0  0  0  0  0  0  0  0
   -0.0353   -3.2264   -1.1845 H   0  0  0  0  0  0  0  0  0  0  0  0
    1.0162   -2.5580    0.0734 H   0  0  0  0  0  0  0  0  0  0  0  0
   -2.7185   -2.1094    1.6392 H   0  0  0  0  0  0  0  0  0  0  0  0
   -3.8401   -2.8698    0.5130 H   0  0  0  0  0  0  0  0  0  0  0  0
   -0.0342   -4.5287    0.8805 H   0  0  0  0  0  0  0  0  0  0  0  0
   -0.4136   -3.1152    1.8617 H   0  0  0  0  0  0  0  0  0  0  0  0
    1.6539    2.0026    2.3922 H   0  0  0  0  0  0  0  0  0  0  0  0
    1.1546    2.9172    0.9689 H   0  0  0  0  0  0  0  0  0  0  0  0
   -0.6471    2.3992    2.6386 H   0  0  0  0  0  0  0  0  0  0  0  0
   -0.4857    0.6860    2.3142 H   0  0  0  0  0  0  0  0  0  0  0  0
   -2.3352   -4.4413    1.4681 H   0  0  0  0  0  0  0  0  0  0  0  0
    1.5543   -1.5346   -1.8087 H   0  0  0  0  0  0  0  0  0  0  0  0
    3.6830    1.7763    1.1705 H   0  0  0  0  0  0  0  0  0  0  0  0
   -2.3059    3.5906    1.4327 H   0  0  0  0  0  0  0  0  0  0  0  0
    3.9581   -1.3841   -1.7180 H   0  0  0  0  0  0  0  0  0  0  0  0
   -3.8251    3.7629   -0.5196 H   0  0  0  0  0  0  0  0  0  0  0  0
   -3.6322    2.0515   -2.3309 H   0  0  0  0  0  0  0  0  0  0  0  0
  1 20  1  0  0  0  0
  2  8  1  0  0  0  0
  2  9  1  0  0  0  0
  2 35  1  0  0  0  0
  3 11  1  0  0  0  0
  3 22  2  0  0  0  0
  4  5  2  0  0  0  0
  4  6  1  0  0  0  0
  4  7  1  0  0  0  0
  5 10  1  0  0  0  0
  5 11  1  0  0  0  0
  6  8  1  0  0  0  0
  6 23  1  0  0  0  0
  6 24  1  0  0  0  0
  7  9  1  0  0  0  0
  7 25  1  0  0  0  0
  7 26  1  0  0  0  0
  8 27  1  0  0  0  0
  8 28  1  0  0  0  0
  9 29  1  0  0  0  0
  9 30  1  0  0  0  0
 10 13  2  0  0  0  0
 10 16  1  0  0  0  0
 11 15  2  0  0  0  0
 12 13  1  0  0  0  0
 12 14  1  0  0  0  0
 12 31  1  0  0  0  0
 12 32  1  0  0  0  0
 13 17  1  0  0  0  0
 14 15  1  0  0  0  0
 14 33  1  0  0  0  0
 14 34  1  0  0  0  0
 15 18  1  0  0  0  0
 16 19  2  0  0  0  0
 16 36  1  0  0  0  0
 17 20  2  0  0  0  0
 17 37  1  0  0  0  0
 18 21  2  0  0  0  0
 18 38  1  0  0  0  0
 19 20  1  0  0  0  0
 19 39  1  0  0  0  0
 21 22  1  0  0  0  0
 21 40  1  0  0  0  0
 22 41  1  0  0  0  0
M  END
> <PUBCHEM_COMPOUND_CID>
124087

> <PUBCHEM_CONFORMER_RMSD>
0.6

> <PUBCHEM_CONFORMER_DIVERSEORDER>
1
3
4
2

> <PUBCHEM_MMFF94_PARTIAL_CHARGES>
29
1 -0.18
10 0.03
11 0.34
12 0.14
13 -0.14
14 0.14
15 -0.14
16 -0.15
17 -0.15
18 -0.15
19 -0.15
2 -0.9
20 0.18
21 -0.15
22 0.16
3 -0.62
35 0.36
36 0.15
37 0.15
38 0.15
39 0.15
4 -0.28
40 0.15
41 0.15
5 -0.06
6 0.14
7 0.14
8 0.27
9 0.27

> <PUBCHEM_EFFECTIVE_ROTOR_COUNT>
1.4

> <PUBCHEM_PHARMACOPHORE_FEATURES>
7
1 2 cation
1 2 donor
1 3 acceptor
6 10 13 16 17 19 20 rings
6 2 4 6 7 8 9 rings
6 3 11 15 18 21 22 rings
7 5 10 11 12 13 14 15 rings

> <PUBCHEM_HEAVY_ATOM_COUNT>
22

> <PUBCHEM_ATOM_DEF_STEREO_COUNT>
0

> <PUBCHEM_ATOM_UDEF_STEREO_COUNT>
0

> <PUBCHEM_BOND_DEF_STEREO_COUNT>
0

> <PUBCHEM_BOND_UDEF_STEREO_COUNT>
0

> <PUBCHEM_ISOTOPIC_ATOM_COUNT>
0

> <PUBCHEM_COMPONENT_COUNT>
1

> <PUBCHEM_CACTVS_TAUTO_COUNT>
1

> <PUBCHEM_CONFORMER_ID>
0001E4B700000001

> <PUBCHEM_MMFF94_ENERGY>
77.5026

> <PUBCHEM_FEATURE_SELFOVERLAP>
35.537

> <PUBCHEM_SHAPE_FINGERPRINT>
10165383 225 18191874426623176157
10688039 33 18119535580877920554
10764073 3 14539249520440972402
107951 10 18340207371393708533
11582403 64 16372389404051549525
121448 382 18341044116964720669
12293681 160 17772742776116704520
12714826 92 18340777060462072662
12716301 132 18339341042093437178
12730499 353 17976547105244255241
12788726 201 18188488107172161202
13140716 1 18049449441454072898
13583140 156 17603876572198346520
13681431 1 17324655864669732539
14787075 74 18201719510142289677
14955137 171 16752132536340834872
15420108 30 15395710542775368736
15463212 79 18113611275300096064
16752209 62 18337093649011467506
16945 1 18190728920105548709
17357779 13 18198047287138980727
19049666 15 18343300370933798454
19765921 60 18126278636793925189
19784866 34 18123753054131999525
20510252 161 18411984688719366686
20600515 1 17909011015818735563
20645476 183 18335977580369077004
21330990 113 18338253617046963947
21524375 3 18125997165937907421
22182313 1 17846233159039411054
2255824 54 17546442280930155735
22907989 373 18337400451368047404
23419403 2 17631161073357748001
23493267 7 18411130330041328896
23557571 272 18341621446969659876
23559900 14 18200877250350324990
25 1 18127687123852598581
2748010 2 17697295666792161280
283562 15 18336546105100754431
3380486 145 17696461163220489935
350125 39 18339369659587494284
3759504 43 18336829693201011020
394222 165 16477712550241145145
4058900 60 17905904577669315728
4340502 62 18122922927838995201
4409770 3 18410289254600547494
59755656 520 18264493897130475518
633830 44 17841155454579783924
81228 2 18336271261637425139
84936 182 17764018073840176581
8809292 202 18341894138416307994
9709674 26 17845939520541335572
9981440 41 17773286064162823618

> <PUBCHEM_SHAPE_MULTIPOLES>
444.66
6.63
4.26
1.34
9.4
3.26
-0.12
-2.33
1.61
-5.11
-1.3
-0.36
-0.48
1.26

> <PUBCHEM_SHAPE_SELFOVERLAP>
969.389

> <PUBCHEM_SHAPE_VOLUME>
239.2

> <PUBCHEM_COORDINATE_TYPE>
2
5
10

$$$$