127028354
  -OEChem-03242010103D

 55 58  0     0  0  0  0  0  0999 V2000
   -8.1346   -1.9899    0.7346 F   0  0  0  0  0  0  0  0  0  0  0  0
   -9.1350   -0.0657    0.7154 F   0  0  0  0  0  0  0  0  0  0  0  0
   -8.7523   -1.1076   -1.1543 F   0  0  0  0  0  0  0  0  0  0  0  0
    2.8147    0.6991    0.2280 O   0  0  0  0  0  0  0  0  0  0  0  0
    4.0503   -3.1540   -0.2064 O   0  0  0  0  0  0  0  0  0  0  0  0
    6.5486   -2.3118   -0.4695 O   0  0  0  0  0  0  0  0  0  0  0  0
    7.2304    2.3821   -0.2271 O   0  0  0  0  0  0  0  0  0  0  0  0
   -2.0091    1.0929    0.2181 N   0  0  0  0  0  0  0  0  0  0  0  0
    0.6143    0.0064    0.4655 N   0  0  0  0  0  0  0  0  0  0  0  0
   -0.8599    1.9670    0.4940 C   0  0  0  0  0  0  0  0  0  0  0  0
   -1.5931   -0.0539   -0.6026 C   0  0  0  0  0  0  0  0  0  0  0  0
    0.2457    1.2014    1.2237 C   0  0  0  0  0  0  0  0  0  0  0  0
   -0.5037   -0.8638    0.1030 C   0  0  0  0  0  0  0  0  0  0  0  0
   -3.0753    1.8407   -0.4471 C   0  0  0  0  0  0  0  0  0  0  0  0
    1.9142   -0.3593    0.2702 C   0  0  0  0  0  0  0  0  0  0  0  0
   -4.4083    1.1531   -0.3160 C   0  0  0  0  0  0  0  0  0  0  0  0
    2.2880   -1.6421    0.1305 C   0  0  0  0  0  0  0  0  0  0  0  0
    4.1466    0.4332    0.0362 C   0  0  0  0  0  0  0  0  0  0  0  0
   -5.1145    0.7778   -1.4589 C   0  0  0  0  0  0  0  0  0  0  0  0
   -4.9368    0.8906    0.9480 C   0  0  0  0  0  0  0  0  0  0  0  0
    4.6462   -0.8577   -0.1199 C   0  0  0  0  0  0  0  0  0  0  0  0
    3.7073   -1.9870   -0.0786 C   0  0  0  0  0  0  0  0  0  0  0  0
   -6.3491    0.1403   -1.3379 C   0  0  0  0  0  0  0  0  0  0  0  0
   -6.1715    0.2531    1.0690 C   0  0  0  0  0  0  0  0  0  0  0  0
   -6.8777   -0.1220   -0.0739 C   0  0  0  0  0  0  0  0  0  0  0  0
    6.0135   -1.0692   -0.3123 C   0  0  0  0  0  0  0  0  0  0  0  0
    5.0148    1.5247    0.0005 C   0  0  0  0  0  0  0  0  0  0  0  0
    6.3814    1.3187   -0.1916 C   0  0  0  0  0  0  0  0  0  0  0  0
    6.8795    0.0243   -0.3474 C   0  0  0  0  0  0  0  0  0  0  0  0
   -8.1963   -0.8065    0.0553 C   0  0  0  0  0  0  0  0  0  0  0  0
    6.9663   -2.9920    0.7128 C   0  0  0  0  0  0  0  0  0  0  0  0
    6.6555    3.6773   -0.0612 C   0  0  0  0  0  0  0  0  0  0  0  0
   -0.4628    2.3894   -0.4388 H   0  0  0  0  0  0  0  0  0  0  0  0
   -2.4395   -0.7251   -0.7892 H   0  0  0  0  0  0  0  0  0  0  0  0
   -1.2212    0.2838   -1.5796 H   0  0  0  0  0  0  0  0  0  0  0  0
   -1.1697    2.8052    1.1298 H   0  0  0  0  0  0  0  0  0  0  0  0
    1.0928    1.8782    1.3830 H   0  0  0  0  0  0  0  0  0  0  0  0
   -0.1021    0.8969    2.2193 H   0  0  0  0  0  0  0  0  0  0  0  0
   -0.9038   -1.3396    1.0071 H   0  0  0  0  0  0  0  0  0  0  0  0
   -0.2123   -1.6631   -0.5875 H   0  0  0  0  0  0  0  0  0  0  0  0
   -2.8288    2.0424   -1.4982 H   0  0  0  0  0  0  0  0  0  0  0  0
   -3.1989    2.8270    0.0220 H   0  0  0  0  0  0  0  0  0  0  0  0
    1.6028   -2.4797    0.1880 H   0  0  0  0  0  0  0  0  0  0  0  0
   -4.7141    0.9746   -2.4498 H   0  0  0  0  0  0  0  0  0  0  0  0
   -4.4009    1.1817    1.8476 H   0  0  0  0  0  0  0  0  0  0  0  0
   -6.8827   -0.1446   -2.2404 H   0  0  0  0  0  0  0  0  0  0  0  0
   -6.5755    0.0534    2.0579 H   0  0  0  0  0  0  0  0  0  0  0  0
    4.5699    2.5061    0.1276 H   0  0  0  0  0  0  0  0  0  0  0  0
    7.9455   -0.1294   -0.4975 H   0  0  0  0  0  0  0  0  0  0  0  0
    7.1779   -4.0327    0.4529 H   0  0  0  0  0  0  0  0  0  0  0  0
    6.1882   -2.9735    1.4826 H   0  0  0  0  0  0  0  0  0  0  0  0
    7.8819   -2.5353    1.1012 H   0  0  0  0  0  0  0  0  0  0  0  0
    7.4735    4.4031   -0.1165 H   0  0  0  0  0  0  0  0  0  0  0  0
    6.1951    3.7901    0.9262 H   0  0  0  0  0  0  0  0  0  0  0  0
    5.9611    3.9168   -0.8737 H   0  0  0  0  0  0  0  0  0  0  0  0
  1 30  1  0  0  0  0
  2 30  1  0  0  0  0
  3 30  1  0  0  0  0
  4 15  1  0  0  0  0
  4 18  1  0  0  0  0
  5 22  2  0  0  0  0
  6 26  1  0  0  0  0
  6 31  1  0  0  0  0
  7 28  1  0  0  0  0
  7 32  1  0  0  0  0
  8 10  1  0  0  0  0
  8 11  1  0  0  0  0
  8 14  1  0  0  0  0
  9 12  1  0  0  0  0
  9 13  1  0  0  0  0
  9 15  1  0  0  0  0
 10 12  1  0  0  0  0
 10 33  1  0  0  0  0
 10 36  1  0  0  0  0
 11 13  1  0  0  0  0
 11 34  1  0  0  0  0
 11 35  1  0  0  0  0
 12 37  1  0  0  0  0
 12 38  1  0  0  0  0
 13 39  1  0  0  0  0
 13 40  1  0  0  0  0
 14 16  1  0  0  0  0
 14 41  1  0  0  0  0
 14 42  1  0  0  0  0
 15 17  2  0  0  0  0
 16 19  2  0  0  0  0
 16 20  1  0  0  0  0
 17 22  1  0  0  0  0
 17 43  1  0  0  0  0
 18 21  2  0  0  0  0
 18 27  1  0  0  0  0
 19 23  1  0  0  0  0
 19 44  1  0  0  0  0
 20 24  2  0  0  0  0
 20 45  1  0  0  0  0
 21 22  1  0  0  0  0
 21 26  1  0  0  0  0
 23 25  2  0  0  0  0
 23 46  1  0  0  0  0
 24 25  1  0  0  0  0
 24 47  1  0  0  0  0
 25 30  1  0  0  0  0
 26 29  2  0  0  0  0
 27 28  2  0  0  0  0
 27 48  1  0  0  0  0
 28 29  1  0  0  0  0
 29 49  1  0  0  0  0
 31 50  1  0  0  0  0
 31 51  1  0  0  0  0
 31 52  1  0  0  0  0
 32 53  1  0  0  0  0
 32 54  1  0  0  0  0
 32 55  1  0  0  0  0
M  END
> <PUBCHEM_COMPOUND_CID>
127028354

> <PUBCHEM_CONFORMER_RMSD>
1

> <PUBCHEM_CONFORMER_DIVERSEORDER>
2
23
20
5
24
22
3
19
14
21
9
7
15
12
11
4
17
16
13
10
18
8
1
6

> <PUBCHEM_MMFF94_PARTIAL_CHARGES>
39
1 -0.34
10 0.27
11 0.27
12 0.37
13 0.37
14 0.41
15 0.18
16 -0.14
17 -0.14
18 0.08
19 -0.15
2 -0.34
20 -0.15
21 0.09
22 0.47
23 -0.15
24 -0.15
25 -0.14
26 0.08
27 -0.15
28 0.08
29 -0.15
3 -0.34
30 1.16
31 0.28
32 0.28
4 -0.16
43 0.15
44 0.15
45 0.15
46 0.15
47 0.15
48 0.15
49 0.15
5 -0.57
6 -0.36
7 -0.36
8 -0.81
9 -0.84

> <PUBCHEM_EFFECTIVE_ROTOR_COUNT>
7.2

> <PUBCHEM_PHARMACOPHORE_FEATURES>
10
1 4 acceptor
1 5 acceptor
1 6 acceptor
1 7 acceptor
1 8 cation
1 9 cation
6 16 19 20 23 24 25 rings
6 18 21 26 27 28 29 rings
6 4 15 17 18 21 22 rings
6 8 9 10 11 12 13 rings

> <PUBCHEM_HEAVY_ATOM_COUNT>
32

> <PUBCHEM_ATOM_DEF_STEREO_COUNT>
0

> <PUBCHEM_ATOM_UDEF_STEREO_COUNT>
0

> <PUBCHEM_BOND_DEF_STEREO_COUNT>
0

> <PUBCHEM_BOND_UDEF_STEREO_COUNT>
0

> <PUBCHEM_ISOTOPIC_ATOM_COUNT>
0

> <PUBCHEM_COMPONENT_COUNT>
1

> <PUBCHEM_CACTVS_TAUTO_COUNT>
1

> <PUBCHEM_CONFORMER_ID>
07924C8200000002

> <PUBCHEM_MMFF94_ENERGY>
104.2807

> <PUBCHEM_FEATURE_SELFOVERLAP>
50.787

> <PUBCHEM_SHAPE_FINGERPRINT>
10 15 17821727273622985440
10299344 5 18060701684928669981
10391435 84 18040999592047850931
10595046 47 18342458097650666408
10917259 128 14274553160300924565
11007060 377 18113905940284832073
11476731 47 18187933944484957564
11719270 70 12829205568255312664
12082328 90 18410290286300027541
12089408 11 17988925570579151385
12144603 126 18059864957055108993
12166972 35 18335424534937723268
13533116 47 18272368647202133272
13692114 37 18040429989248825562
13782708 43 17969220023653413450
13914758 101 8790892882523557391
14117953 113 11530475611124256168
14142895 15 18336830900181851476
14251764 18 17846779616086215629
14400156 96 17894633678543504308
14849402 71 18201722903013973561
14856354 85 16773793719452987133
150020 25 18040713654320278237
15142383 8 9727629506104550382
15183329 4 17418370285937263869
15352257 5 18412825789914718635
15444296 7 18261114135730694223
15461852 350 13479143393546857153
15510794 2 18260267443981196403
15890870 6 18337394972193304020
18335252 98 18408887347452630235
18608769 82 18336826493772167883
20157964 124 18410293615010243564
20554085 129 16008742533055331720
21049683 271 18342739654084576113
21150785 3 18130788983825356633
21267235 1 18272371936318640582
21315763 28 18337671915123838106
21521721 280 18410577292339592507
21774942 28 13046209547422377359
21781055 127 14979416053233148665
22149856 69 18131072589148044873
23389318 12 18341606062565389949
23424782 7 18260551134337982019
23522609 53 17774743998848264432
23569917 315 18198064677974440606
24771750 20 17827366784262470180
335352 9 18410863141085843302
335507 130 18059852844571925486
34797466 226 18131357401709950724
3552219 110 17918002676515017721
4073 2 18261115213536038955
4149490 64 18335135398039842386
4325135 7 18409730672945130573
439807 62 18413107234778704825
44880568 143 17458344100849658437
4625314 4 18334293180759453141
5470011 282 18408882936563662605
9831232 110 17630055858224770206
9962374 69 18410847734432237794
999808 66 18410015447263988851

> <PUBCHEM_SHAPE_MULTIPOLES>
603.28
28.36
2.9
0.97
33.46
0.07
0.05
-4.96
1.76
-7.51
-0.11
1.43
0.06
-0.14

> <PUBCHEM_SHAPE_SELFOVERLAP>
1310.532

> <PUBCHEM_SHAPE_VOLUME>
331.8

> <PUBCHEM_COORDINATE_TYPE>
2
5
10

$$$$