101134354
  -OEChem-03242010103D

 51 52  0     0  0  0  0  0  0999 V2000
   -3.0956    1.7925    0.1602 O   0  0  0  0  0  0  0  0  0  0  0  0
    0.8691    0.9000    1.8079 O   0  0  0  0  0  0  0  0  0  0  0  0
   -0.8024    1.8358   -0.2035 N   0  0  0  0  0  0  0  0  0  0  0  0
    0.3749    1.1489   -0.4443 N   0  0  0  0  0  0  0  0  0  0  0  0
   -0.6186    3.2735   -0.1236 C   0  0  0  0  0  0  0  0  0  0  0  0
   -1.0656    3.7654    1.2579 C   0  0  0  0  0  0  0  0  0  0  0  0
   -1.4622    3.9532   -1.2083 C   0  0  0  0  0  0  0  0  0  0  0  0
    0.8627    3.6018   -0.3369 C   0  0  0  0  0  0  0  0  0  0  0  0
   -2.0320    1.2140   -0.0541 C   0  0  0  0  0  0  0  0  0  0  0  0
   -2.0784   -0.2555   -0.1732 C   0  0  0  0  0  0  0  0  0  0  0  0
    1.1436    0.7209    0.6241 C   0  0  0  0  0  0  0  0  0  0  0  0
   -2.5260   -1.0284    0.8983 C   0  0  0  0  0  0  0  0  0  0  0  0
   -1.6745   -0.8724   -1.3572 C   0  0  0  0  0  0  0  0  0  0  0  0
   -2.5699   -2.4180    0.7857 C   0  0  0  0  0  0  0  0  0  0  0  0
   -1.7184   -2.2622   -1.4698 C   0  0  0  0  0  0  0  0  0  0  0  0
    2.3821   -0.0172    0.2678 C   0  0  0  0  0  0  0  0  0  0  0  0
   -2.1661   -3.0348   -0.3984 C   0  0  0  0  0  0  0  0  0  0  0  0
    2.5880   -1.3291    0.6946 C   0  0  0  0  0  0  0  0  0  0  0  0
   -3.0486   -3.2444    1.9310 C   0  0  0  0  0  0  0  0  0  0  0  0
   -1.2866   -2.9220   -2.7356 C   0  0  0  0  0  0  0  0  0  0  0  0
    3.3481    0.6236   -0.5078 C   0  0  0  0  0  0  0  0  0  0  0  0
    3.7600   -2.0000    0.3457 C   0  0  0  0  0  0  0  0  0  0  0  0
    1.5701   -2.0391    1.5261 C   0  0  0  0  0  0  0  0  0  0  0  0
    4.5202   -0.0474   -0.8567 C   0  0  0  0  0  0  0  0  0  0  0  0
    4.7262   -1.3593   -0.4300 C   0  0  0  0  0  0  0  0  0  0  0  0
   -1.2247    3.5518   -2.2006 H   0  0  0  0  0  0  0  0  0  0  0  0
   -0.5410    3.2350    2.0604 H   0  0  0  0  0  0  0  0  0  0  0  0
   -0.8513    4.8341    1.3760 H   0  0  0  0  0  0  0  0  0  0  0  0
   -2.5383    3.8289   -1.0549 H   0  0  0  0  0  0  0  0  0  0  0  0
    1.2484    3.2566   -1.3037 H   0  0  0  0  0  0  0  0  0  0  0  0
    1.5120    3.2486    0.4705 H   0  0  0  0  0  0  0  0  0  0  0  0
    0.9949    4.6925   -0.3453 H   0  0  0  0  0  0  0  0  0  0  0  0
   -1.2695    5.0322   -1.2330 H   0  0  0  0  0  0  0  0  0  0  0  0
   -2.1385    3.6385    1.4308 H   0  0  0  0  0  0  0  0  0  0  0  0
    0.6118    0.9769   -1.4163 H   0  0  0  0  0  0  0  0  0  0  0  0
   -2.8396   -0.5470    1.8218 H   0  0  0  0  0  0  0  0  0  0  0  0
   -1.3394   -0.2747   -2.2018 H   0  0  0  0  0  0  0  0  0  0  0  0
   -2.2000   -4.1183   -0.4857 H   0  0  0  0  0  0  0  0  0  0  0  0
   -2.8228   -2.7618    2.8880 H   0  0  0  0  0  0  0  0  0  0  0  0
   -2.5586   -4.2239    1.9437 H   0  0  0  0  0  0  0  0  0  0  0  0
   -4.1305   -3.3939    1.8601 H   0  0  0  0  0  0  0  0  0  0  0  0
   -1.5096   -2.2928   -3.6040 H   0  0  0  0  0  0  0  0  0  0  0  0
   -1.8097   -3.8724   -2.8863 H   0  0  0  0  0  0  0  0  0  0  0  0
   -0.2096   -3.1155   -2.7089 H   0  0  0  0  0  0  0  0  0  0  0  0
    3.2081    1.6466   -0.8455 H   0  0  0  0  0  0  0  0  0  0  0  0
    3.9369   -3.0218    0.6710 H   0  0  0  0  0  0  0  0  0  0  0  0
    1.5493   -1.6277    2.5402 H   0  0  0  0  0  0  0  0  0  0  0  0
    0.5757   -1.9574    1.0788 H   0  0  0  0  0  0  0  0  0  0  0  0
    1.7908   -3.1092    1.6075 H   0  0  0  0  0  0  0  0  0  0  0  0
    5.2730    0.4520   -1.4597 H   0  0  0  0  0  0  0  0  0  0  0  0
    5.6391   -1.8814   -0.7013 H   0  0  0  0  0  0  0  0  0  0  0  0
  1  9  2  0  0  0  0
  2 11  2  0  0  0  0
  3  4  1  0  0  0  0
  3  5  1  0  0  0  0
  3  9  1  0  0  0  0
  4 11  1  0  0  0  0
  4 35  1  0  0  0  0
  5  6  1  0  0  0  0
  5  7  1  0  0  0  0
  5  8  1  0  0  0  0
  6 27  1  0  0  0  0
  6 28  1  0  0  0  0
  6 34  1  0  0  0  0
  7 26  1  0  0  0  0
  7 29  1  0  0  0  0
  7 33  1  0  0  0  0
  8 30  1  0  0  0  0
  8 31  1  0  0  0  0
  8 32  1  0  0  0  0
  9 10  1  0  0  0  0
 10 12  2  0  0  0  0
 10 13  1  0  0  0  0
 11 16  1  0  0  0  0
 12 14  1  0  0  0  0
 12 36  1  0  0  0  0
 13 15  2  0  0  0  0
 13 37  1  0  0  0  0
 14 17  2  0  0  0  0
 14 19  1  0  0  0  0
 15 17  1  0  0  0  0
 15 20  1  0  0  0  0
 16 18  1  0  0  0  0
 16 21  2  0  0  0  0
 17 38  1  0  0  0  0
 18 22  2  0  0  0  0
 18 23  1  0  0  0  0
 19 39  1  0  0  0  0
 19 40  1  0  0  0  0
 19 41  1  0  0  0  0
 20 42  1  0  0  0  0
 20 43  1  0  0  0  0
 20 44  1  0  0  0  0
 21 24  1  0  0  0  0
 21 45  1  0  0  0  0
 22 25  1  0  0  0  0
 22 46  1  0  0  0  0
 23 47  1  0  0  0  0
 23 48  1  0  0  0  0
 23 49  1  0  0  0  0
 24 25  2  0  0  0  0
 24 50  1  0  0  0  0
 25 51  1  0  0  0  0
M  END
> <PUBCHEM_COMPOUND_CID>
101134354

> <PUBCHEM_CONFORMER_RMSD>
0.8

> <PUBCHEM_CONFORMER_DIVERSEORDER>
1
26
14
8
28
21
23
20
11
6
25
29
12
19
9
15
17
24
27
22
10
7
3
13
18
2
5
30
16
4

> <PUBCHEM_MMFF94_PARTIAL_CHARGES>
30
1 -0.57
10 0.09
11 0.54
12 -0.15
13 -0.15
14 -0.14
15 -0.14
16 0.09
17 -0.15
18 -0.14
19 0.14
2 -0.57
20 0.14
21 -0.15
22 -0.15
23 0.14
24 -0.15
25 -0.15
3 -0.36
35 0.37
36 0.15
37 0.15
38 0.15
4 -0.43
45 0.15
46 0.15
5 0.3
50 0.15
51 0.15
9 0.54

> <PUBCHEM_EFFECTIVE_ROTOR_COUNT>
6

> <PUBCHEM_PHARMACOPHORE_FEATURES>
6
1 1 acceptor
1 2 acceptor
1 4 donor
4 5 6 7 8 hydrophobe
6 10 12 13 14 15 17 rings
6 16 18 21 22 24 25 rings

> <PUBCHEM_HEAVY_ATOM_COUNT>
25

> <PUBCHEM_ATOM_DEF_STEREO_COUNT>
0

> <PUBCHEM_ATOM_UDEF_STEREO_COUNT>
0

> <PUBCHEM_BOND_DEF_STEREO_COUNT>
0

> <PUBCHEM_BOND_UDEF_STEREO_COUNT>
0

> <PUBCHEM_ISOTOPIC_ATOM_COUNT>
0

> <PUBCHEM_COMPONENT_COUNT>
1

> <PUBCHEM_CACTVS_TAUTO_COUNT>
21

> <PUBCHEM_CONFORMER_ID>
0607301200000001

> <PUBCHEM_MMFF94_ENERGY>
84.8641

> <PUBCHEM_FEATURE_SELFOVERLAP>
30.446

> <PUBCHEM_SHAPE_FINGERPRINT>
10616163 171 18337958891948860958
107951 10 17831592971825123166
11578080 2 17702930556430976584
12054548 360 18412544353376091608
12156800 1 16454958320323497251
12160290 23 18195788709423913960
12173636 292 17833258728084053892
12553582 1 18336820982849046802
12592029 89 17111566692939055265
12633257 1 16844746350637341683
12714826 92 18201725037585578722
12788726 201 18265317435545177363
13140716 1 18410007779850651464
13681431 1 17977083988317886125
14081887 123 18269535226906255824
14251757 5 18335704897068959196
14790565 3 18049167670119811761
16752209 62 18051952754351768605
1813 80 18126869293628852558
19930381 70 17542515275919140554
20645476 183 18047466721388402676
20764821 26 16822503462841621364
21634736 98 18408325510359929926
21731516 1 18268704094356598638
22907989 373 18265324015240325428
23419403 2 14003691837372210265
23598288 3 18262797350615145646
23728640 28 18196359330183819939
238 59 16679460272532642623
3298306 158 17404014830075233420
352729 6 17762048839940745448
6287921 2 17548142589383682290
70251023 43 17981032326258082679
7097593 13 17910686676155842611
81228 2 18195218118945387985
90525 40 17905883678421230608

> <PUBCHEM_SHAPE_MULTIPOLES>
492.79
6.43
5.41
1.73
6.81
4.7
-0.4
-5.36
-0.04
-3.3
-0.23
-1.06
-1.31
-0.04

> <PUBCHEM_SHAPE_SELFOVERLAP>
1043.776

> <PUBCHEM_SHAPE_VOLUME>
277.2

> <PUBCHEM_COORDINATE_TYPE>
2
5
10

$$$$