91773
  -OEChem-03242010103D

 54 55  0     0  0  0  0  0  0999 V2000
   -3.9272    0.7258   -0.1843 O   0  0  0  0  0  0  0  0  0  0  0  0
    0.1172    1.2918   -1.7645 O   0  0  0  0  0  0  0  0  0  0  0  0
   -1.7687    1.4484    0.2638 N   0  0  0  0  0  0  0  0  0  0  0  0
   -0.4411    1.1492    0.4821 N   0  0  0  0  0  0  0  0  0  0  0  0
   -2.0395    2.8885    0.3258 C   0  0  0  0  0  0  0  0  0  0  0  0
   -3.0559    3.1467    1.4431 C   0  0  0  0  0  0  0  0  0  0  0  0
   -0.7273    3.6192    0.6295 C   0  0  0  0  0  0  0  0  0  0  0  0
   -2.6051    3.3582   -1.0197 C   0  0  0  0  0  0  0  0  0  0  0  0
   -2.7352    0.4991    0.0149 C   0  0  0  0  0  0  0  0  0  0  0  0
   -2.3024   -0.9104   -0.0304 C   0  0  0  0  0  0  0  0  0  0  0  0
    0.4287    1.0931   -0.5930 C   0  0  0  0  0  0  0  0  0  0  0  0
   -2.3100   -1.6580    1.1350 C   0  0  0  0  0  0  0  0  0  0  0  0
   -1.8968   -1.4553   -1.2368 C   0  0  0  0  0  0  0  0  0  0  0  0
    1.8405    0.7759   -0.2591 C   0  0  0  0  0  0  0  0  0  0  0  0
   -1.8996   -2.9904    1.0924 C   0  0  0  0  0  0  0  0  0  0  0  0
   -1.4864   -2.7878   -1.2793 C   0  0  0  0  0  0  0  0  0  0  0  0
   -1.4878   -3.5553   -0.1147 C   0  0  0  0  0  0  0  0  0  0  0  0
    2.8411    1.2312   -1.0930 C   0  0  0  0  0  0  0  0  0  0  0  0
    2.1080    0.0373    0.8751 C   0  0  0  0  0  0  0  0  0  0  0  0
    4.4639    0.1896    0.3623 C   0  0  0  0  0  0  0  0  0  0  0  0
   -1.9012   -3.8116    2.3374 C   0  0  0  0  0  0  0  0  0  0  0  0
   -1.0455   -3.3917   -2.5698 C   0  0  0  0  0  0  0  0  0  0  0  0
    4.1674    0.9349   -0.7788 C   0  0  0  0  0  0  0  0  0  0  0  0
    3.4343   -0.2591    1.1894 C   0  0  0  0  0  0  0  0  0  0  0  0
    5.8820   -0.1278    0.6983 C   0  0  0  0  0  0  0  0  0  0  0  0
    6.3465   -1.4413    0.0744 C   0  0  0  0  0  0  0  0  0  0  0  0
   -3.2092    4.2225    1.5876 H   0  0  0  0  0  0  0  0  0  0  0  0
   -4.0387    2.7133    1.2351 H   0  0  0  0  0  0  0  0  0  0  0  0
   -2.7090    2.7309    2.3965 H   0  0  0  0  0  0  0  0  0  0  0  0
    0.0052    3.5676   -0.1824 H   0  0  0  0  0  0  0  0  0  0  0  0
   -0.2606    3.3082    1.5720 H   0  0  0  0  0  0  0  0  0  0  0  0
   -0.9332    4.6917    0.7505 H   0  0  0  0  0  0  0  0  0  0  0  0
   -3.5808    2.9181   -1.2468 H   0  0  0  0  0  0  0  0  0  0  0  0
   -2.7380    4.4463   -1.0244 H   0  0  0  0  0  0  0  0  0  0  0  0
   -1.9324    3.1047   -1.8463 H   0  0  0  0  0  0  0  0  0  0  0  0
   -0.1793    1.0122    1.4523 H   0  0  0  0  0  0  0  0  0  0  0  0
   -2.6331   -1.2132    2.0728 H   0  0  0  0  0  0  0  0  0  0  0  0
   -1.9014   -0.8547   -2.1428 H   0  0  0  0  0  0  0  0  0  0  0  0
   -1.1712   -4.5952   -0.1482 H   0  0  0  0  0  0  0  0  0  0  0  0
    2.6269    1.8168   -1.9820 H   0  0  0  0  0  0  0  0  0  0  0  0
    1.3347   -0.3589    1.5249 H   0  0  0  0  0  0  0  0  0  0  0  0
   -2.8627   -4.3225    2.4491 H   0  0  0  0  0  0  0  0  0  0  0  0
   -1.1043   -4.5627    2.3158 H   0  0  0  0  0  0  0  0  0  0  0  0
   -1.7300   -3.1890    3.2221 H   0  0  0  0  0  0  0  0  0  0  0  0
   -0.2948   -4.1721   -2.4052 H   0  0  0  0  0  0  0  0  0  0  0  0
   -1.9016   -3.8322   -3.0904 H   0  0  0  0  0  0  0  0  0  0  0  0
   -0.5871   -2.6396   -3.2212 H   0  0  0  0  0  0  0  0  0  0  0  0
    4.9607    1.2898   -1.4315 H   0  0  0  0  0  0  0  0  0  0  0  0
    3.6521   -0.8485    2.0763 H   0  0  0  0  0  0  0  0  0  0  0  0
    6.5373    0.6859    0.3632 H   0  0  0  0  0  0  0  0  0  0  0  0
    6.0065   -0.1782    1.7873 H   0  0  0  0  0  0  0  0  0  0  0  0
    5.7390   -2.2827    0.4246 H   0  0  0  0  0  0  0  0  0  0  0  0
    7.3889   -1.6392    0.3431 H   0  0  0  0  0  0  0  0  0  0  0  0
    6.2769   -1.4073   -1.0181 H   0  0  0  0  0  0  0  0  0  0  0  0
  1  9  2  0  0  0  0
  2 11  2  0  0  0  0
  3  4  1  0  0  0  0
  3  5  1  0  0  0  0
  3  9  1  0  0  0  0
  4 11  1  0  0  0  0
  4 36  1  0  0  0  0
  5  6  1  0  0  0  0
  5  7  1  0  0  0  0
  5  8  1  0  0  0  0
  6 27  1  0  0  0  0
  6 28  1  0  0  0  0
  6 29  1  0  0  0  0
  7 30  1  0  0  0  0
  7 31  1  0  0  0  0
  7 32  1  0  0  0  0
  8 33  1  0  0  0  0
  8 34  1  0  0  0  0
  8 35  1  0  0  0  0
  9 10  1  0  0  0  0
 10 12  2  0  0  0  0
 10 13  1  0  0  0  0
 11 14  1  0  0  0  0
 12 15  1  0  0  0  0
 12 37  1  0  0  0  0
 13 16  2  0  0  0  0
 13 38  1  0  0  0  0
 14 18  2  0  0  0  0
 14 19  1  0  0  0  0
 15 17  2  0  0  0  0
 15 21  1  0  0  0  0
 16 17  1  0  0  0  0
 16 22  1  0  0  0  0
 17 39  1  0  0  0  0
 18 23  1  0  0  0  0
 18 40  1  0  0  0  0
 19 24  2  0  0  0  0
 19 41  1  0  0  0  0
 20 23  2  0  0  0  0
 20 24  1  0  0  0  0
 20 25  1  0  0  0  0
 21 42  1  0  0  0  0
 21 43  1  0  0  0  0
 21 44  1  0  0  0  0
 22 45  1  0  0  0  0
 22 46  1  0  0  0  0
 22 47  1  0  0  0  0
 23 48  1  0  0  0  0
 24 49  1  0  0  0  0
 25 26  1  0  0  0  0
 25 50  1  0  0  0  0
 25 51  1  0  0  0  0
 26 52  1  0  0  0  0
 26 53  1  0  0  0  0
 26 54  1  0  0  0  0
M  END
> <PUBCHEM_COMPOUND_CID>
91773

> <PUBCHEM_CONFORMER_RMSD>
0.8

> <PUBCHEM_CONFORMER_DIVERSEORDER>
1
13
19
20
7
11
6
2
3
18
10
4
14
9
5
15
8
17
16
12

> <PUBCHEM_MMFF94_PARTIAL_CHARGES>
30
1 -0.57
10 0.09
11 0.54
12 -0.15
13 -0.15
14 0.09
15 -0.14
16 -0.14
17 -0.15
18 -0.15
19 -0.15
2 -0.57
20 -0.14
21 0.14
22 0.14
23 -0.15
24 -0.15
25 0.14
3 -0.36
36 0.37
37 0.15
38 0.15
39 0.15
4 -0.43
40 0.15
41 0.15
48 0.15
49 0.15
5 0.3
9 0.54

> <PUBCHEM_EFFECTIVE_ROTOR_COUNT>
7

> <PUBCHEM_PHARMACOPHORE_FEATURES>
7
1 1 acceptor
1 2 acceptor
1 26 hydrophobe
1 4 donor
4 5 6 7 8 hydrophobe
6 10 12 13 15 16 17 rings
6 14 18 19 20 23 24 rings

> <PUBCHEM_HEAVY_ATOM_COUNT>
26

> <PUBCHEM_ATOM_DEF_STEREO_COUNT>
0

> <PUBCHEM_ATOM_UDEF_STEREO_COUNT>
0

> <PUBCHEM_BOND_DEF_STEREO_COUNT>
0

> <PUBCHEM_BOND_UDEF_STEREO_COUNT>
0

> <PUBCHEM_ISOTOPIC_ATOM_COUNT>
0

> <PUBCHEM_COMPONENT_COUNT>
1

> <PUBCHEM_CACTVS_TAUTO_COUNT>
2

> <PUBCHEM_CONFORMER_ID>
0001667D00000001

> <PUBCHEM_MMFF94_ENERGY>
83.6476

> <PUBCHEM_FEATURE_SELFOVERLAP>
35.52

> <PUBCHEM_SHAPE_FINGERPRINT>
10483366 6 17986649628596749087
107951 10 18262242088463754459
11036077 51 18336549313298224489
11049842 53 17909019550504166756
11578080 2 16768449186640411227
12156800 1 12156318651360297079
12160290 23 18340498819448289989
12553582 1 17979925135085960198
12633257 1 16843901956167522498
12788726 201 18337656581900882515
13004483 165 18198337562276729711
13140716 1 18196095666700009153
133893 2 17400907610611251189
14114206 34 17970890362003996230
14844126 61 18342448296556350458
15042514 8 18337114565771140035
20554085 129 17698135397428774657
20775438 99 16395182687954786918
22956985 138 9721647050427006844
23598288 3 18337116764409072366
23728640 28 18411981373178720139
3383291 50 18411696608315674267
3411729 13 17764875689306094945
3633792 109 18117545250473795189
4015057 19 17631429272649237960
469060 322 15905112630255686056
559249 180 18264482889509155698
70251023 43 17546996889973432759
7970288 3 17976823408827452570
9981440 41 18201724990135405071

> <PUBCHEM_SHAPE_MULTIPOLES>
513.37
8.97
5.19
1.76
19.4
0.98
0.26
0.67
-1.63
-7
-0.45
-0.93
1.5
-0.37

> <PUBCHEM_SHAPE_SELFOVERLAP>
1083.901

> <PUBCHEM_SHAPE_VOLUME>
290.9

> <PUBCHEM_COORDINATE_TYPE>
2
5
10

$$$$