19697016
  -OEChem-03242010103D

 41 43  0     0  0  0  0  0  0999 V2000
   -6.4306    1.3622   -0.7884 Cl  0  0  0  0  0  0  0  0  0  0  0  0
    0.7838   -3.3799    0.5468 O   0  0  0  0  0  0  0  0  0  0  0  0
   -1.0357   -1.8018    1.4382 O   0  0  0  0  0  0  0  0  0  0  0  0
    3.6605    4.2430   -0.0456 O   0  0  0  0  0  0  0  0  0  0  0  0
    2.8904    2.7274    1.4613 O   0  0  0  0  0  0  0  0  0  0  0  0
    0.1714   -0.3320    0.2113 N   0  0  0  0  0  0  0  0  0  0  0  0
    1.7217    1.1433   -0.4793 C   0  0  0  0  0  0  0  0  0  0  0  0
    1.3571   -1.0447    0.0015 C   0  0  0  0  0  0  0  0  0  0  0  0
    2.3295   -0.1331   -0.4330 C   0  0  0  0  0  0  0  0  0  0  0  0
    0.4174    0.9969   -0.0787 C   0  0  0  0  0  0  0  0  0  0  0  0
    2.3752    2.4073   -0.8810 C   0  0  0  0  0  0  0  0  0  0  0  0
    1.6654   -2.4118    0.1391 C   0  0  0  0  0  0  0  0  0  0  0  0
    3.6315   -0.5913   -0.7239 C   0  0  0  0  0  0  0  0  0  0  0  0
   -0.5913    2.0786    0.0293 C   0  0  0  0  0  0  0  0  0  0  0  0
   -1.0609   -0.8435    0.6729 C   0  0  0  0  0  0  0  0  0  0  0  0
    2.9629   -2.8430   -0.1558 C   0  0  0  0  0  0  0  0  0  0  0  0
    3.9350   -1.9464   -0.5805 C   0  0  0  0  0  0  0  0  0  0  0  0
   -2.3845   -0.2993    0.3128 C   0  0  0  0  0  0  0  0  0  0  0  0
    2.9993    3.1110    0.3036 C   0  0  0  0  0  0  0  0  0  0  0  0
   -2.7848   -0.2661   -1.0231 C   0  0  0  0  0  0  0  0  0  0  0  0
   -3.2356    0.1812    1.3081 C   0  0  0  0  0  0  0  0  0  0  0  0
    0.0323   -4.0294   -0.4710 C   0  0  0  0  0  0  0  0  0  0  0  0
   -4.0360    0.2478   -1.3636 C   0  0  0  0  0  0  0  0  0  0  0  0
   -4.4867    0.6951    0.9674 C   0  0  0  0  0  0  0  0  0  0  0  0
   -4.8869    0.7284   -0.3684 C   0  0  0  0  0  0  0  0  0  0  0  0
    1.6631    3.0898   -1.3567 H   0  0  0  0  0  0  0  0  0  0  0  0
    3.1695    2.2062   -1.6091 H   0  0  0  0  0  0  0  0  0  0  0  0
    4.4024    0.0978   -1.0578 H   0  0  0  0  0  0  0  0  0  0  0  0
   -1.2790    2.0703   -0.8198 H   0  0  0  0  0  0  0  0  0  0  0  0
   -1.1462    2.0220    0.9692 H   0  0  0  0  0  0  0  0  0  0  0  0
   -0.1201    3.0672    0.0387 H   0  0  0  0  0  0  0  0  0  0  0  0
    3.2230   -3.8942   -0.0529 H   0  0  0  0  0  0  0  0  0  0  0  0
    4.9376   -2.3001   -0.8041 H   0  0  0  0  0  0  0  0  0  0  0  0
   -2.1321   -0.6404   -1.8075 H   0  0  0  0  0  0  0  0  0  0  0  0
   -2.9339    0.1627    2.3521 H   0  0  0  0  0  0  0  0  0  0  0  0
   -0.7075   -4.6770    0.0076 H   0  0  0  0  0  0  0  0  0  0  0  0
    0.6883   -4.6485   -1.0909 H   0  0  0  0  0  0  0  0  0  0  0  0
   -0.4941   -3.3021   -1.0976 H   0  0  0  0  0  0  0  0  0  0  0  0
   -4.3347    0.2669   -2.4085 H   0  0  0  0  0  0  0  0  0  0  0  0
   -5.1391    1.0668    1.7534 H   0  0  0  0  0  0  0  0  0  0  0  0
    4.0428    4.6988    0.7344 H   0  0  0  0  0  0  0  0  0  0  0  0
  1 25  1  0  0  0  0
  2 12  1  0  0  0  0
  2 22  1  0  0  0  0
  3 15  2  0  0  0  0
  4 19  1  0  0  0  0
  4 41  1  0  0  0  0
  5 19  2  0  0  0  0
  6  8  1  0  0  0  0
  6 10  1  0  0  0  0
  6 15  1  0  0  0  0
  7  9  1  0  0  0  0
  7 10  2  0  0  0  0
  7 11  1  0  0  0  0
  8  9  2  0  0  0  0
  8 12  1  0  0  0  0
  9 13  1  0  0  0  0
 10 14  1  0  0  0  0
 11 19  1  0  0  0  0
 11 26  1  0  0  0  0
 11 27  1  0  0  0  0
 12 16  2  0  0  0  0
 13 17  2  0  0  0  0
 13 28  1  0  0  0  0
 14 29  1  0  0  0  0
 14 30  1  0  0  0  0
 14 31  1  0  0  0  0
 15 18  1  0  0  0  0
 16 17  1  0  0  0  0
 16 32  1  0  0  0  0
 17 33  1  0  0  0  0
 18 20  2  0  0  0  0
 18 21  1  0  0  0  0
 20 23  1  0  0  0  0
 20 34  1  0  0  0  0
 21 24  2  0  0  0  0
 21 35  1  0  0  0  0
 22 36  1  0  0  0  0
 22 37  1  0  0  0  0
 22 38  1  0  0  0  0
 23 25  2  0  0  0  0
 23 39  1  0  0  0  0
 24 25  1  0  0  0  0
 24 40  1  0  0  0  0
M  END
> <PUBCHEM_COMPOUND_CID>
19697016

> <PUBCHEM_CONFORMER_RMSD>
0.8

> <PUBCHEM_CONFORMER_DIVERSEORDER>
1
11
3
17
20
19
6
14
2
8
10
12
7
16
5
4
15
13
18
9

> <PUBCHEM_MMFF94_PARTIAL_CHARGES>
32
1 -0.18
10 -0.33
11 0.24
12 0.08
13 -0.15
14 0.18
15 0.49
16 -0.15
17 -0.15
18 0.09
19 0.66
2 -0.36
20 -0.15
21 -0.15
22 0.28
23 -0.15
24 -0.15
25 0.18
28 0.15
3 -0.57
32 0.15
33 0.15
34 0.15
35 0.15
39 0.15
4 -0.65
40 0.15
41 0.5
5 -0.57
6 0.29
7 -0.18
8 -0.15

> <PUBCHEM_EFFECTIVE_ROTOR_COUNT>
5

> <PUBCHEM_PHARMACOPHORE_FEATURES>
8
1 2 acceptor
1 3 acceptor
1 4 acceptor
1 5 acceptor
3 4 5 19 anion
5 6 7 8 9 10 rings
6 18 20 21 23 24 25 rings
6 8 9 12 13 16 17 rings

> <PUBCHEM_HEAVY_ATOM_COUNT>
25

> <PUBCHEM_ATOM_DEF_STEREO_COUNT>
0

> <PUBCHEM_ATOM_UDEF_STEREO_COUNT>
0

> <PUBCHEM_BOND_DEF_STEREO_COUNT>
0

> <PUBCHEM_BOND_UDEF_STEREO_COUNT>
0

> <PUBCHEM_ISOTOPIC_ATOM_COUNT>
0

> <PUBCHEM_COMPONENT_COUNT>
1

> <PUBCHEM_CACTVS_TAUTO_COUNT>
1

> <PUBCHEM_CONFORMER_ID>
012C8D7800000001

> <PUBCHEM_MMFF94_ENERGY>
77.3282

> <PUBCHEM_FEATURE_SELFOVERLAP>
40.757

> <PUBCHEM_SHAPE_FINGERPRINT>
10411042 1 17905607701077193910
1100329 8 18411420644245714542
11471102 20 18335144137580669575
11582403 64 17129851971147220452
12236239 1 17917427563329621091
12403259 415 18187938312924749473
12553582 1 18194406597596251578
12730499 353 18334583451660322411
12788726 201 17110156023873250714
13134695 92 18265050237108505982
13140716 1 18335988674306565130
13590594 115 18196098728838053160
14178342 30 17978231891653175688
14848178 96 18340208608265863169
15230672 131 18118973736166554852
15439362 3 18411135874707561996
15664445 248 18057054505848665358
16945 1 18336550425848007522
1813 80 17986119504402773446
19784866 34 18339923847902720105
20511986 3 17703208673149657205
20645477 70 18334857186852771071
20832881 197 18190462649524062563
21033648 29 17603584111096102293
22122407 14 18125745413148430713
221357 26 18189330161712680581
22149856 69 18189356688031762865
22182313 1 18118983608992672642
22289505 5 18043808672173166551
22393880 68 18271533116273357741
2255824 54 18341613693984068918
2334 1 17977114770765195338
23557571 272 17095821962045109761
23559900 14 18409168818250548112
2748010 2 18118984700067353050
283562 15 17905055746967790742
3060560 45 18339644443005424390
350125 39 18193011527889070466
474 4 18340203089285239121
495365 180 18411412934114565793
5104073 3 18334019415080176025
5895379 119 16700635406121037241
6443956 14 18267309724971276996
7364860 26 18412267224959057968
7471813 234 17988358161490035976
84936 182 18201722902639011312
9981440 41 18051967314438738688

> <PUBCHEM_SHAPE_MULTIPOLES>
487.9
9.59
4.39
1.13
14.21
0.66
-0.12
3.58
2.03
-6.85
-0.29
0.7
0.09
0.65

> <PUBCHEM_SHAPE_SELFOVERLAP>
1060.522

> <PUBCHEM_SHAPE_VOLUME>
267.6

> <PUBCHEM_COORDINATE_TYPE>
2
5
10

$$$$