20361784
  -OEChem-03242010103D

 41 43  0     0  0  0  0  0  0999 V2000
    6.0924    0.3004   -1.4453 Cl  0  0  0  0  0  0  0  0  0  0  0  0
    1.0772   -3.8091    0.1729 O   0  0  0  0  0  0  0  0  0  0  0  0
    0.6043    2.6932    1.4232 O   0  0  0  0  0  0  0  0  0  0  0  0
   -5.9395    0.6458   -1.1245 O   0  0  0  0  0  0  0  0  0  0  0  0
   -3.8425    0.7565   -1.9913 O   0  0  0  0  0  0  0  0  0  0  0  0
   -0.4560    0.8626    0.6185 N   0  0  0  0  0  0  0  0  0  0  0  0
   -2.6294    0.3103    0.4521 C   0  0  0  0  0  0  0  0  0  0  0  0
   -1.8720   -0.8807    0.3590 C   0  0  0  0  0  0  0  0  0  0  0  0
   -0.5198   -0.5269    0.4675 C   0  0  0  0  0  0  0  0  0  0  0  0
   -1.7493    1.3504    0.6151 C   0  0  0  0  0  0  0  0  0  0  0  0
   -4.1028    0.4155    0.3899 C   0  0  0  0  0  0  0  0  0  0  0  0
    0.4868   -1.5094    0.4013 C   0  0  0  0  0  0  0  0  0  0  0  0
   -2.2248   -2.2363    0.1928 C   0  0  0  0  0  0  0  0  0  0  0  0
   -2.0889    2.7857    0.7630 C   0  0  0  0  0  0  0  0  0  0  0  0
    0.7041    1.6500    0.7859 C   0  0  0  0  0  0  0  0  0  0  0  0
    0.1130   -2.8470    0.2358 C   0  0  0  0  0  0  0  0  0  0  0  0
   -1.2242   -3.2083    0.1339 C   0  0  0  0  0  0  0  0  0  0  0  0
    2.0323    1.3169    0.2360 C   0  0  0  0  0  0  0  0  0  0  0  0
   -4.5867    0.6088   -1.0301 C   0  0  0  0  0  0  0  0  0  0  0  0
    2.2025    1.1807   -1.1417 C   0  0  0  0  0  0  0  0  0  0  0  0
    3.1178    1.1387    1.0938 C   0  0  0  0  0  0  0  0  0  0  0  0
    3.4580    0.8662   -1.6617 C   0  0  0  0  0  0  0  0  0  0  0  0
    4.3733    0.8242    0.5739 C   0  0  0  0  0  0  0  0  0  0  0  0
    4.5433    0.6880   -0.8038 C   0  0  0  0  0  0  0  0  0  0  0  0
    2.4310   -3.3763    0.2837 C   0  0  0  0  0  0  0  0  0  0  0  0
   -4.5631   -0.4994    0.7804 H   0  0  0  0  0  0  0  0  0  0  0  0
   -4.4680    1.2493    0.9986 H   0  0  0  0  0  0  0  0  0  0  0  0
    1.5157   -1.2045    0.5079 H   0  0  0  0  0  0  0  0  0  0  0  0
   -3.2664   -2.5339    0.1074 H   0  0  0  0  0  0  0  0  0  0  0  0
   -1.9692    3.1059    1.8029 H   0  0  0  0  0  0  0  0  0  0  0  0
   -1.4585    3.4113    0.1223 H   0  0  0  0  0  0  0  0  0  0  0  0
   -3.1218    2.9981    0.4710 H   0  0  0  0  0  0  0  0  0  0  0  0
   -1.5016   -4.2513    0.0049 H   0  0  0  0  0  0  0  0  0  0  0  0
    1.3653    1.3195   -1.8209 H   0  0  0  0  0  0  0  0  0  0  0  0
    2.9966    1.2396    2.1692 H   0  0  0  0  0  0  0  0  0  0  0  0
    3.5758    0.7634   -2.7373 H   0  0  0  0  0  0  0  0  0  0  0  0
    5.2098    0.6872    1.2544 H   0  0  0  0  0  0  0  0  0  0  0  0
    2.7146   -2.7168   -0.5439 H   0  0  0  0  0  0  0  0  0  0  0  0
    2.6337   -2.9286    1.2627 H   0  0  0  0  0  0  0  0  0  0  0  0
    3.0615   -4.2683    0.2072 H   0  0  0  0  0  0  0  0  0  0  0  0
   -6.2381    0.7914   -2.0475 H   0  0  0  0  0  0  0  0  0  0  0  0
  1 24  1  0  0  0  0
  2 16  1  0  0  0  0
  2 25  1  0  0  0  0
  3 15  2  0  0  0  0
  4 19  1  0  0  0  0
  4 41  1  0  0  0  0
  5 19  2  0  0  0  0
  6  9  1  0  0  0  0
  6 10  1  0  0  0  0
  6 15  1  0  0  0  0
  7  8  1  0  0  0  0
  7 10  2  0  0  0  0
  7 11  1  0  0  0  0
  8  9  2  0  0  0  0
  8 13  1  0  0  0  0
  9 12  1  0  0  0  0
 10 14  1  0  0  0  0
 11 19  1  0  0  0  0
 11 26  1  0  0  0  0
 11 27  1  0  0  0  0
 12 16  2  0  0  0  0
 12 28  1  0  0  0  0
 13 17  2  0  0  0  0
 13 29  1  0  0  0  0
 14 30  1  0  0  0  0
 14 31  1  0  0  0  0
 14 32  1  0  0  0  0
 15 18  1  0  0  0  0
 16 17  1  0  0  0  0
 17 33  1  0  0  0  0
 18 20  2  0  0  0  0
 18 21  1  0  0  0  0
 20 22  1  0  0  0  0
 20 34  1  0  0  0  0
 21 23  2  0  0  0  0
 21 35  1  0  0  0  0
 22 24  2  0  0  0  0
 22 36  1  0  0  0  0
 23 24  1  0  0  0  0
 23 37  1  0  0  0  0
 25 38  1  0  0  0  0
 25 39  1  0  0  0  0
 25 40  1  0  0  0  0
M  END
> <PUBCHEM_COMPOUND_CID>
20361784

> <PUBCHEM_CONFORMER_RMSD>
0.8

> <PUBCHEM_CONFORMER_DIVERSEORDER>
1
9
7
24
14
8
2
20
21
16
11
17
18
4
19
6
10
3
13
12
5
23
22
15

> <PUBCHEM_MMFF94_PARTIAL_CHARGES>
32
1 -0.18
10 -0.33
11 0.24
12 -0.15
13 -0.15
14 0.18
15 0.49
16 0.08
17 -0.15
18 0.09
19 0.66
2 -0.36
20 -0.15
21 -0.15
22 -0.15
23 -0.15
24 0.18
25 0.28
28 0.15
29 0.15
3 -0.57
33 0.15
34 0.15
35 0.15
36 0.15
37 0.15
4 -0.65
41 0.5
5 -0.57
6 0.29
7 -0.18
9 -0.15

> <PUBCHEM_EFFECTIVE_ROTOR_COUNT>
5

> <PUBCHEM_PHARMACOPHORE_FEATURES>
8
1 2 acceptor
1 3 acceptor
1 4 acceptor
1 5 acceptor
3 4 5 19 anion
5 6 7 8 9 10 rings
6 18 20 21 22 23 24 rings
6 8 9 12 13 16 17 rings

> <PUBCHEM_HEAVY_ATOM_COUNT>
25

> <PUBCHEM_ATOM_DEF_STEREO_COUNT>
0

> <PUBCHEM_ATOM_UDEF_STEREO_COUNT>
0

> <PUBCHEM_BOND_DEF_STEREO_COUNT>
0

> <PUBCHEM_BOND_UDEF_STEREO_COUNT>
0

> <PUBCHEM_ISOTOPIC_ATOM_COUNT>
0

> <PUBCHEM_COMPONENT_COUNT>
1

> <PUBCHEM_CACTVS_TAUTO_COUNT>
1

> <PUBCHEM_CONFORMER_ID>
0136B23800000001

> <PUBCHEM_MMFF94_ENERGY>
73.38

> <PUBCHEM_FEATURE_SELFOVERLAP>
40.744

> <PUBCHEM_SHAPE_FINGERPRINT>
10006869 2 17697904479118819097
10165383 225 18334017190260891877
10366900 7 17703523155303341972
105312 117 18113890576775175621
10693767 8 17917136231107970663
11513181 2 17627232252156354542
11578080 2 17532650140283931023
12156800 1 15695140943472901446
12236239 1 17676488389095530000
13140716 1 18126009501448160553
133893 2 17971200213771239497
13540713 5 17983014453975961953
14251757 5 18049746280177017910
14790565 3 18269571446139070969
14931854 50 18269848536275302318
15163728 17 17314223359359839957
16752209 62 18192708071317062354
167882 2 18189897517553590658
16945 1 18412829109602497105
19958102 18 18336560326454182494
20511986 3 17896308281660045856
20600515 1 18199207216014394884
20642791 178 17905338325280955416
20905425 154 18199761245261914734
21344244 181 17775287209516855447
21344244 246 18411697647534138871
21781051 124 18187935031622743187
22393880 68 18129644397122477541
23114952 82 17971459720639187965
23184049 29 17763745786193605560
23366157 5 17898857846211544802
23559900 14 18271533117149667552
25147074 1 18056764217894449153
266924 87 18265331703274021669
2748010 2 17981037832484738385
3298306 158 18410007758375769119
340366 18 18041848440325065700
352729 6 18338526351184952433
57527585 21 17461124761703657437
59755656 215 18411138021768716735
7471813 234 17982432824798423879
9709674 26 17984987256861262568

> <PUBCHEM_SHAPE_MULTIPOLES>
487.9
9.75
3.73
1.34
2.53
4.1
0.49
-4.12
5.37
-0.04
-1
0.18
-0.71
0.13

> <PUBCHEM_SHAPE_SELFOVERLAP>
1059.445

> <PUBCHEM_SHAPE_VOLUME>
268.8

> <PUBCHEM_COORDINATE_TYPE>
2
5
10

$$$$