137661238
  -OEChem-03242010103D

 81 85  0     1  0  0  0  0  0999 V2000
   -7.2066   -1.9128   -0.8615 O   0  0  0  0  0  0  0  0  0  0  0  0
   -8.6237    0.4739   -0.7488 O   0  0  0  0  0  0  0  0  0  0  0  0
    4.9592    1.3450   -1.2015 O   0  0  0  0  0  0  0  0  0  0  0  0
    4.3028   -2.3180   -1.5562 O   0  0  0  0  0  0  0  0  0  0  0  0
   -0.0914   -3.6783   -0.5828 O   0  0  0  0  0  0  0  0  0  0  0  0
   -0.1482   -0.5321    3.0273 O   0  0  0  0  0  0  0  0  0  0  0  0
   -1.4222   -2.4854    1.5316 O   0  0  0  0  0  0  0  0  0  0  0  0
   -2.3674    1.7677   -0.1680 N   0  0  2  0  0  0  0  0  0  0  0  0
    1.2613    2.8672   -0.0221 N   0  0  0  0  0  0  0  0  0  0  0  0
    1.6638    3.2571    1.1983 N   0  0  0  0  0  0  0  0  0  0  0  0
    2.9858    3.1314    1.2365 N   0  0  0  0  0  0  0  0  0  0  0  0
    3.7879   -0.9596    0.2867 N   0  0  0  0  0  0  0  0  0  0  0  0
   -3.0730    2.7799    0.6273 C   0  0  0  0  0  0  0  0  0  0  0  0
   -3.0001    0.4487    0.0096 C   0  0  0  0  0  0  0  0  0  0  0  0
   -4.4924    2.9726    0.0840 C   0  0  0  0  0  0  0  0  0  0  0  0
   -4.4938    0.4658   -0.2214 C   0  0  0  0  0  0  0  0  0  0  0  0
   -5.2146    1.6697   -0.1410 C   0  0  0  0  0  0  0  0  0  0  0  0
   -0.9541    1.7085    0.2035 C   0  0  0  0  0  0  0  0  0  0  0  0
   -0.1991    2.8938   -0.3969 C   0  0  0  0  0  0  0  0  0  0  0  0
   -5.1786   -0.7348   -0.4536 C   0  0  0  0  0  0  0  0  0  0  0  0
   -6.6026    1.6605   -0.3307 C   0  0  0  0  0  0  0  0  0  0  0  0
   -6.5620   -0.7348   -0.6316 C   0  0  0  0  0  0  0  0  0  0  0  0
   -7.2729    0.4617   -0.5724 C   0  0  0  0  0  0  0  0  0  0  0  0
    2.3114    2.4819   -0.7975 C   0  0  0  0  0  0  0  0  0  0  0  0
    3.3980    2.6576    0.0219 C   0  0  0  0  0  0  0  0  0  0  0  0
    4.8182    2.4103   -0.2578 C   0  0  0  0  0  0  0  0  0  0  0  0
   -6.4051   -3.0918   -0.9069 C   0  0  0  0  0  0  0  0  0  0  0  0
   -9.1014    0.6392   -2.0826 C   0  0  0  0  0  0  0  0  0  0  0  0
    6.0610    0.5487   -1.0611 C   0  0  0  0  0  0  0  0  0  0  0  0
    5.9299   -0.8210   -0.8328 C   0  0  0  0  0  0  0  0  0  0  0  0
    7.3291    1.1225   -1.1514 C   0  0  0  0  0  0  0  0  0  0  0  0
    4.6154   -1.4405   -0.7367 C   0  0  0  0  0  0  0  0  0  0  0  0
    7.0670   -1.6171   -0.6950 C   0  0  0  0  0  0  0  0  0  0  0  0
    8.4663    0.3264   -1.0136 C   0  0  0  0  0  0  0  0  0  0  0  0
    2.4636   -1.3493    0.6043 C   0  0  0  0  0  0  0  0  0  0  0  0
    8.3352   -1.0433   -0.7853 C   0  0  0  0  0  0  0  0  0  0  0  0
    1.7965   -0.7465    1.6708 C   0  0  0  0  0  0  0  0  0  0  0  0
    1.8257   -2.3340   -0.1502 C   0  0  0  0  0  0  0  0  0  0  0  0
    0.5208   -2.7158    0.1619 C   0  0  0  0  0  0  0  0  0  0  0  0
    0.4918   -1.1283    1.9827 C   0  0  0  0  0  0  0  0  0  0  0  0
   -0.1461   -2.1129    1.2284 C   0  0  0  0  0  0  0  0  0  0  0  0
   -0.8309   -3.2432   -1.7223 C   0  0  0  0  0  0  0  0  0  0  0  0
    0.5752    0.4647    3.7465 C   0  0  0  0  0  0  0  0  0  0  0  0
   -1.5800   -3.5556    2.4604 C   0  0  0  0  0  0  0  0  0  0  0  0
   -2.5781    3.7555    0.5889 H   0  0  0  0  0  0  0  0  0  0  0  0
   -3.1126    2.4836    1.6847 H   0  0  0  0  0  0  0  0  0  0  0  0
   -2.8212    0.0675    1.0239 H   0  0  0  0  0  0  0  0  0  0  0  0
   -2.5480   -0.2517   -0.7034 H   0  0  0  0  0  0  0  0  0  0  0  0
   -5.0586    3.5935    0.7884 H   0  0  0  0  0  0  0  0  0  0  0  0
   -4.4481    3.5072   -0.8735 H   0  0  0  0  0  0  0  0  0  0  0  0
   -0.4982    0.7959   -0.2013 H   0  0  0  0  0  0  0  0  0  0  0  0
   -0.8270    1.6707    1.2915 H   0  0  0  0  0  0  0  0  0  0  0  0
   -0.5502    3.8686   -0.0451 H   0  0  0  0  0  0  0  0  0  0  0  0
   -0.2250    2.8816   -1.4925 H   0  0  0  0  0  0  0  0  0  0  0  0
   -4.5730   -1.6349   -0.4820 H   0  0  0  0  0  0  0  0  0  0  0  0
   -7.1618    2.5925   -0.2889 H   0  0  0  0  0  0  0  0  0  0  0  0
    2.1975    2.1330   -1.8140 H   0  0  0  0  0  0  0  0  0  0  0  0
    5.2719    3.3133   -0.6815 H   0  0  0  0  0  0  0  0  0  0  0  0
    5.3358    2.1708    0.6804 H   0  0  0  0  0  0  0  0  0  0  0  0
   -5.6895   -3.0624   -1.7357 H   0  0  0  0  0  0  0  0  0  0  0  0
   -5.9216   -3.2890    0.0561 H   0  0  0  0  0  0  0  0  0  0  0  0
   -7.0799   -3.9322   -1.1006 H   0  0  0  0  0  0  0  0  0  0  0  0
  -10.1944    0.6201   -2.0599 H   0  0  0  0  0  0  0  0  0  0  0  0
   -8.7502   -0.1769   -2.7219 H   0  0  0  0  0  0  0  0  0  0  0  0
   -8.7763    1.6020   -2.4895 H   0  0  0  0  0  0  0  0  0  0  0  0
    7.4474    2.1864   -1.3378 H   0  0  0  0  0  0  0  0  0  0  0  0
    6.9793   -2.6856   -0.5153 H   0  0  0  0  0  0  0  0  0  0  0  0
    9.4538    0.7728   -1.0860 H   0  0  0  0  0  0  0  0  0  0  0  0
    4.1760   -0.2383    0.8910 H   0  0  0  0  0  0  0  0  0  0  0  0
    9.2207   -1.6630   -0.6781 H   0  0  0  0  0  0  0  0  0  0  0  0
    2.3421    0.0129    2.2211 H   0  0  0  0  0  0  0  0  0  0  0  0
    2.2830   -2.8421   -0.9875 H   0  0  0  0  0  0  0  0  0  0  0  0
   -1.2315   -4.1259   -2.2280 H   0  0  0  0  0  0  0  0  0  0  0  0
   -0.1823   -2.7039   -2.4199 H   0  0  0  0  0  0  0  0  0  0  0  0
   -1.6667   -2.6062   -1.4167 H   0  0  0  0  0  0  0  0  0  0  0  0
   -0.0865    0.8338    4.5370 H   0  0  0  0  0  0  0  0  0  0  0  0
    0.8227    1.3233    3.1159 H   0  0  0  0  0  0  0  0  0  0  0  0
    1.4568    0.0438    4.2419 H   0  0  0  0  0  0  0  0  0  0  0  0
   -2.6501   -3.7336    2.5981 H   0  0  0  0  0  0  0  0  0  0  0  0
   -1.1201   -4.4711    2.0754 H   0  0  0  0  0  0  0  0  0  0  0  0
   -1.1418   -3.2935    3.4285 H   0  0  0  0  0  0  0  0  0  0  0  0
  1 22  1  0  0  0  0
  1 27  1  0  0  0  0
  2 23  1  0  0  0  0
  2 28  1  0  0  0  0
  3 26  1  0  0  0  0
  3 29  1  0  0  0  0
  4 32  2  0  0  0  0
  5 39  1  0  0  0  0
  5 42  1  0  0  0  0
  6 40  1  0  0  0  0
  6 43  1  0  0  0  0
  7 41  1  0  0  0  0
  7 44  1  0  0  0  0
  8 13  1  0  0  0  0
  8 14  1  0  0  0  0
  8 18  1  0  0  0  0
  9 10  1  0  0  0  0
  9 19  1  0  0  0  0
  9 24  1  0  0  0  0
 10 11  2  0  0  0  0
 11 25  1  0  0  0  0
 12 32  1  0  0  0  0
 12 35  1  0  0  0  0
 12 69  1  0  0  0  0
 13 15  1  0  0  0  0
 13 45  1  0  0  0  0
 13 46  1  0  0  0  0
 14 16  1  0  0  0  0
 14 47  1  0  0  0  0
 14 48  1  0  0  0  0
 15 17  1  0  0  0  0
 15 49  1  0  0  0  0
 15 50  1  0  0  0  0
 16 17  1  0  0  0  0
 16 20  2  0  0  0  0
 17 21  2  0  0  0  0
 18 19  1  0  0  0  0
 18 51  1  0  0  0  0
 18 52  1  0  0  0  0
 19 53  1  0  0  0  0
 19 54  1  0  0  0  0
 20 22  1  0  0  0  0
 20 55  1  0  0  0  0
 21 23  1  0  0  0  0
 21 56  1  0  0  0  0
 22 23  2  0  0  0  0
 24 25  2  0  0  0  0
 24 57  1  0  0  0  0
 25 26  1  0  0  0  0
 26 58  1  0  0  0  0
 26 59  1  0  0  0  0
 27 60  1  0  0  0  0
 27 61  1  0  0  0  0
 27 62  1  0  0  0  0
 28 63  1  0  0  0  0
 28 64  1  0  0  0  0
 28 65  1  0  0  0  0
 29 30  1  0  0  0  0
 29 31  2  0  0  0  0
 30 32  1  0  0  0  0
 30 33  2  0  0  0  0
 31 34  1  0  0  0  0
 31 66  1  0  0  0  0
 33 36  1  0  0  0  0
 33 67  1  0  0  0  0
 34 36  2  0  0  0  0
 34 68  1  0  0  0  0
 35 37  2  0  0  0  0
 35 38  1  0  0  0  0
 36 70  1  0  0  0  0
 37 40  1  0  0  0  0
 37 71  1  0  0  0  0
 38 39  2  0  0  0  0
 38 72  1  0  0  0  0
 39 41  1  0  0  0  0
 40 41  2  0  0  0  0
 42 73  1  0  0  0  0
 42 74  1  0  0  0  0
 42 75  1  0  0  0  0
 43 76  1  0  0  0  0
 43 77  1  0  0  0  0
 43 78  1  0  0  0  0
 44 79  1  0  0  0  0
 44 80  1  0  0  0  0
 44 81  1  0  0  0  0
M  END
> <PUBCHEM_COMPOUND_CID>
137661238

> <PUBCHEM_CONFORMER_RMSD>
1.4

> <PUBCHEM_CONFORMER_DIVERSEORDER>
2
159
166
42
149
52
81
60
85
3
124
51
13
155
54
46
105
136
22
104
40
80
39
165
6
160
20
86
74
112
119
1
122
102
58
113
56
120
163
25
133
14
145
11
84
15
5
151
164
99
7
162
44
73
107
76
18
125
134
154
24
53
150
59
26
103
116
127
78
146
70
67
106
16
143
34
121
10
89
118
35
144
29
137
167
12
72
101
132
75
130
8
108
66
114
28
110
31
139
48
55
126
161
32
36
147
17
111
97
4
94
61
87
45
123
168
92
83
157
88
93
9
38
82
138
129
63
57
68
128
23
77
98
41
69
90
131
37
153
27
142
33
79
158
64
91
156
65
47
96
43
49
148
62
115
30
50
100
19
95
152
135
141
21
117
109
71
140

> <PUBCHEM_MMFF94_PARTIAL_CHARGES>
54
1 -0.36
10 -0.42
11 -0.23
12 -0.55
13 0.27
14 0.41
15 0.14
16 -0.14
17 -0.14
18 0.27
19 0.26
2 -0.36
20 -0.15
21 -0.15
22 0.08
23 0.08
24 -0.3
25 0.05
26 0.46
27 0.28
28 0.28
29 0.08
3 -0.36
30 0.09
31 -0.15
32 0.54
33 -0.15
34 -0.15
35 0.12
36 -0.15
37 -0.15
38 -0.15
39 0.08
4 -0.57
40 0.08
41 0.08
42 0.28
43 0.28
44 0.28
5 -0.36
55 0.15
56 0.15
57 0.15
6 -0.36
66 0.15
67 0.15
68 0.15
69 0.37
7 -0.36
70 0.15
71 0.15
72 0.15
8 -0.81
9 0.31

> <PUBCHEM_EFFECTIVE_ROTOR_COUNT>
14.8

> <PUBCHEM_PHARMACOPHORE_FEATURES>
14
1 1 acceptor
1 12 donor
1 2 acceptor
1 3 acceptor
1 4 acceptor
1 5 acceptor
1 6 acceptor
1 7 acceptor
1 8 cation
5 9 10 11 24 25 rings
6 16 17 20 21 22 23 rings
6 29 30 31 33 34 36 rings
6 35 37 38 39 40 41 rings
6 8 13 14 15 16 17 rings

> <PUBCHEM_HEAVY_ATOM_COUNT>
44

> <PUBCHEM_ATOM_DEF_STEREO_COUNT>
0

> <PUBCHEM_ATOM_UDEF_STEREO_COUNT>
0

> <PUBCHEM_BOND_DEF_STEREO_COUNT>
0

> <PUBCHEM_BOND_UDEF_STEREO_COUNT>
0

> <PUBCHEM_ISOTOPIC_ATOM_COUNT>
0

> <PUBCHEM_COMPONENT_COUNT>
1

> <PUBCHEM_CACTVS_TAUTO_COUNT>
-1

> <PUBCHEM_CONFORMER_ID>
08348B3600000002

> <PUBCHEM_MMFF94_ENERGY>
169.379

> <PUBCHEM_FEATURE_SELFOVERLAP>
71.088

> <PUBCHEM_SHAPE_FINGERPRINT>
10483366 6 18410576184454496096
12838863 1 18265049142735883618
1361 2 18410576162710426220
13811026 1 18333735736157474810
15001296 14 18337378453168061725
15351339 4 18335417916086860192
15444296 7 17989483039579453444
15721738 202 18131350804086438897
15968369 153 18199741621239795865
15975801 100 17313654954470729684
21133410 62 17968926497029613037
21133410 90 17131831023483822064
21792938 131 18340477890083225673
23559900 14 18199738164804134609
27425 322 16444201983528440252
437795 51 18334292063519323901
484989 97 18338241573420849011
5776283 40 18412545439702137226

> <PUBCHEM_SHAPE_MULTIPOLES>
839.51
23.14
4.6
2.05
9.98
0.48
1.98
-1.38
-16.75
0.75
0.39
0.04
0.92
0.17

> <PUBCHEM_SHAPE_SELFOVERLAP>
1801.6

> <PUBCHEM_SHAPE_VOLUME>
466.1

> <PUBCHEM_COORDINATE_TYPE>
2
5
10

$$$$