132576654
  -OEChem-03242010103D

 77 81  0     1  0  0  0  0  0999 V2000
    7.2152    2.0788   -0.8999 O   0  0  0  0  0  0  0  0  0  0  0  0
    8.6372   -0.3028   -0.7476 O   0  0  0  0  0  0  0  0  0  0  0  0
   -4.9432   -1.2099   -1.2005 O   0  0  0  0  0  0  0  0  0  0  0  0
   -4.2942    2.4484   -1.6130 O   0  0  0  0  0  0  0  0  0  0  0  0
    0.1576    0.7503    3.0028 O   0  0  0  0  0  0  0  0  0  0  0  0
    1.4232    2.6920    1.4687 O   0  0  0  0  0  0  0  0  0  0  0  0
    2.3830   -1.6004   -0.1528 N   0  0  2  0  0  0  0  0  0  0  0  0
   -1.2435   -2.7051    0.0070 N   0  0  0  0  0  0  0  0  0  0  0  0
   -1.6465   -3.0762    1.2330 N   0  0  0  0  0  0  0  0  0  0  0  0
   -2.9688   -2.9528    1.2677 N   0  0  0  0  0  0  0  0  0  0  0  0
   -3.7785    1.1208    0.2518 N   0  0  0  0  0  0  0  0  0  0  0  0
    3.0899   -2.5983    0.6595 C   0  0  0  0  0  0  0  0  0  0  0  0
    3.0127   -0.2773    0.0045 C   0  0  0  0  0  0  0  0  0  0  0  0
    4.5103   -2.7966    0.1208 C   0  0  0  0  0  0  0  0  0  0  0  0
    4.5068   -0.2950   -0.2247 C   0  0  0  0  0  0  0  0  0  0  0  0
    5.2301   -1.4959   -0.1242 C   0  0  0  0  0  0  0  0  0  0  0  0
    0.9692   -1.5382    0.2163 C   0  0  0  0  0  0  0  0  0  0  0  0
    0.2174   -2.7346   -0.3658 C   0  0  0  0  0  0  0  0  0  0  0  0
    5.1892    0.9031   -0.4754 C   0  0  0  0  0  0  0  0  0  0  0  0
    6.6182   -1.4869   -0.3126 C   0  0  0  0  0  0  0  0  0  0  0  0
    6.5728    0.9033   -0.6518 C   0  0  0  0  0  0  0  0  0  0  0  0
    7.2862   -0.2907   -0.5728 C   0  0  0  0  0  0  0  0  0  0  0  0
   -2.2935   -2.3344   -0.7755 C   0  0  0  0  0  0  0  0  0  0  0  0
   -3.3807   -2.4994    0.0454 C   0  0  0  0  0  0  0  0  0  0  0  0
   -4.8010   -2.2596   -0.2398 C   0  0  0  0  0  0  0  0  0  0  0  0
    6.4113    3.2552   -0.9649 C   0  0  0  0  0  0  0  0  0  0  0  0
    9.1166   -0.4884   -2.0780 C   0  0  0  0  0  0  0  0  0  0  0  0
   -6.0469   -0.4136   -1.0740 C   0  0  0  0  0  0  0  0  0  0  0  0
   -5.9189    0.9598   -0.8676 C   0  0  0  0  0  0  0  0  0  0  0  0
   -7.3138   -0.9915   -1.1564 C   0  0  0  0  0  0  0  0  0  0  0  0
   -7.0578    1.7556   -0.7436 C   0  0  0  0  0  0  0  0  0  0  0  0
   -4.6058    1.5834   -0.7799 C   0  0  0  0  0  0  0  0  0  0  0  0
   -8.4528   -0.1958   -1.0326 C   0  0  0  0  0  0  0  0  0  0  0  0
   -8.3248    1.1778   -0.8262 C   0  0  0  0  0  0  0  0  0  0  0  0
   -2.4553    1.5184    0.5645 C   0  0  0  0  0  0  0  0  0  0  0  0
   -1.7879    0.9359    1.6420 C   0  0  0  0  0  0  0  0  0  0  0  0
   -1.8197    2.4923   -0.2056 C   0  0  0  0  0  0  0  0  0  0  0  0
   -0.4849    1.3273    1.9493 C   0  0  0  0  0  0  0  0  0  0  0  0
    0.1509    2.3011    1.1791 C   0  0  0  0  0  0  0  0  0  0  0  0
   -0.5166    2.8837    0.1016 C   0  0  0  0  0  0  0  0  0  0  0  0
   -0.5624   -0.2368    3.7390 C   0  0  0  0  0  0  0  0  0  0  0  0
    1.9998    3.6930    0.6319 C   0  0  0  0  0  0  0  0  0  0  0  0
    2.5970   -3.5754    0.6362 H   0  0  0  0  0  0  0  0  0  0  0  0
    3.1277   -2.2850    1.7121 H   0  0  0  0  0  0  0  0  0  0  0  0
    2.8322    0.1192    1.0126 H   0  0  0  0  0  0  0  0  0  0  0  0
    2.5597    0.4117   -0.7194 H   0  0  0  0  0  0  0  0  0  0  0  0
    4.4682   -3.3465   -0.8282 H   0  0  0  0  0  0  0  0  0  0  0  0
    5.0771   -3.4051    0.8356 H   0  0  0  0  0  0  0  0  0  0  0  0
    0.5117   -0.6332   -0.2034 H   0  0  0  0  0  0  0  0  0  0  0  0
    0.8409   -1.4833    1.3034 H   0  0  0  0  0  0  0  0  0  0  0  0
    0.5702   -3.7028    0.0020 H   0  0  0  0  0  0  0  0  0  0  0  0
    0.2444   -2.7399   -1.4615 H   0  0  0  0  0  0  0  0  0  0  0  0
    4.5821    1.8014   -0.5189 H   0  0  0  0  0  0  0  0  0  0  0  0
    7.1793   -2.4168   -0.2553 H   0  0  0  0  0  0  0  0  0  0  0  0
   -2.1793   -2.0016   -1.7974 H   0  0  0  0  0  0  0  0  0  0  0  0
   -5.2524   -3.1701   -0.6495 H   0  0  0  0  0  0  0  0  0  0  0  0
   -5.3202   -2.0063    0.6939 H   0  0  0  0  0  0  0  0  0  0  0  0
    7.0845    4.0939   -1.1710 H   0  0  0  0  0  0  0  0  0  0  0  0
    5.9260    3.4665   -0.0059 H   0  0  0  0  0  0  0  0  0  0  0  0
    5.6968    3.2112   -1.7940 H   0  0  0  0  0  0  0  0  0  0  0  0
   10.2096   -0.4665   -2.0544 H   0  0  0  0  0  0  0  0  0  0  0  0
    8.7644    0.3166   -2.7306 H   0  0  0  0  0  0  0  0  0  0  0  0
    8.7942   -1.4583   -2.4697 H   0  0  0  0  0  0  0  0  0  0  0  0
   -7.4295   -2.0585   -1.3258 H   0  0  0  0  0  0  0  0  0  0  0  0
   -6.9725    2.8270   -0.5809 H   0  0  0  0  0  0  0  0  0  0  0  0
   -9.4393   -0.6454   -1.0988 H   0  0  0  0  0  0  0  0  0  0  0  0
   -9.2116    1.7973   -0.7298 H   0  0  0  0  0  0  0  0  0  0  0  0
   -4.1658    0.4086    0.8674 H   0  0  0  0  0  0  0  0  0  0  0  0
   -2.3315    0.1839    2.2045 H   0  0  0  0  0  0  0  0  0  0  0  0
   -2.2707    2.9875   -1.0537 H   0  0  0  0  0  0  0  0  0  0  0  0
   -0.0847    3.6448   -0.5393 H   0  0  0  0  0  0  0  0  0  0  0  0
    0.1006   -0.5904    4.5355 H   0  0  0  0  0  0  0  0  0  0  0  0
   -1.4455    0.1894    4.2272 H   0  0  0  0  0  0  0  0  0  0  0  0
   -0.8072   -1.1065    3.1228 H   0  0  0  0  0  0  0  0  0  0  0  0
    2.1027    3.3443   -0.4015 H   0  0  0  0  0  0  0  0  0  0  0  0
    3.0123    3.8799    1.0047 H   0  0  0  0  0  0  0  0  0  0  0  0
    1.4550    4.6406    0.7011 H   0  0  0  0  0  0  0  0  0  0  0  0
  1 21  1  0  0  0  0
  1 26  1  0  0  0  0
  2 22  1  0  0  0  0
  2 27  1  0  0  0  0
  3 25  1  0  0  0  0
  3 28  1  0  0  0  0
  4 32  2  0  0  0  0
  5 38  1  0  0  0  0
  5 41  1  0  0  0  0
  6 39  1  0  0  0  0
  6 42  1  0  0  0  0
  7 12  1  0  0  0  0
  7 13  1  0  0  0  0
  7 17  1  0  0  0  0
  8  9  1  0  0  0  0
  8 18  1  0  0  0  0
  8 23  1  0  0  0  0
  9 10  2  0  0  0  0
 10 24  1  0  0  0  0
 11 32  1  0  0  0  0
 11 35  1  0  0  0  0
 11 68  1  0  0  0  0
 12 14  1  0  0  0  0
 12 43  1  0  0  0  0
 12 44  1  0  0  0  0
 13 15  1  0  0  0  0
 13 45  1  0  0  0  0
 13 46  1  0  0  0  0
 14 16  1  0  0  0  0
 14 47  1  0  0  0  0
 14 48  1  0  0  0  0
 15 16  1  0  0  0  0
 15 19  2  0  0  0  0
 16 20  2  0  0  0  0
 17 18  1  0  0  0  0
 17 49  1  0  0  0  0
 17 50  1  0  0  0  0
 18 51  1  0  0  0  0
 18 52  1  0  0  0  0
 19 21  1  0  0  0  0
 19 53  1  0  0  0  0
 20 22  1  0  0  0  0
 20 54  1  0  0  0  0
 21 22  2  0  0  0  0
 23 24  2  0  0  0  0
 23 55  1  0  0  0  0
 24 25  1  0  0  0  0
 25 56  1  0  0  0  0
 25 57  1  0  0  0  0
 26 58  1  0  0  0  0
 26 59  1  0  0  0  0
 26 60  1  0  0  0  0
 27 61  1  0  0  0  0
 27 62  1  0  0  0  0
 27 63  1  0  0  0  0
 28 29  1  0  0  0  0
 28 30  2  0  0  0  0
 29 31  2  0  0  0  0
 29 32  1  0  0  0  0
 30 33  1  0  0  0  0
 30 64  1  0  0  0  0
 31 34  1  0  0  0  0
 31 65  1  0  0  0  0
 33 34  2  0  0  0  0
 33 66  1  0  0  0  0
 34 67  1  0  0  0  0
 35 36  2  0  0  0  0
 35 37  1  0  0  0  0
 36 38  1  0  0  0  0
 36 69  1  0  0  0  0
 37 40  2  0  0  0  0
 37 70  1  0  0  0  0
 38 39  2  0  0  0  0
 39 40  1  0  0  0  0
 40 71  1  0  0  0  0
 41 72  1  0  0  0  0
 41 73  1  0  0  0  0
 41 74  1  0  0  0  0
 42 75  1  0  0  0  0
 42 76  1  0  0  0  0
 42 77  1  0  0  0  0
M  END
> <PUBCHEM_COMPOUND_CID>
132576654

> <PUBCHEM_CONFORMER_RMSD>
1.4

> <PUBCHEM_CONFORMER_DIVERSEORDER>
1
109
87
125
151
50
96
40
42
23
148
34
3
154
152
129
14
102
58
6
89
149
110
54
55
137
51
150
74
82
25
39
126
142
78
10
131
101
24
4
2
107
75
67
145
98
28
17
88
130
5
118
127
141
69
132
111
123
105
106
15
81
56
147
7
128
48
64
41
21
155
43
116
65
72
117
143
95
38
62
16
71
136
31
33
122
103
146
91
85
73
18
93
86
76
114
135
19
119
138
52
8
32
120
124
80
92
83
61
12
59
134
27
36
79
37
153
144
68
35
139
77
53
22
13
11
104
99
112
9
26
113
30
49
29
94
140
108
63
133
84
46
66
47
100
70
121
44
60
45
115
20
90
57
97

> <PUBCHEM_MMFF94_PARTIAL_CHARGES>
53
1 -0.36
10 -0.23
11 -0.55
12 0.27
13 0.41
14 0.14
15 -0.14
16 -0.14
17 0.27
18 0.26
19 -0.15
2 -0.36
20 -0.15
21 0.08
22 0.08
23 -0.3
24 0.05
25 0.46
26 0.28
27 0.28
28 0.08
29 0.09
3 -0.36
30 -0.15
31 -0.15
32 0.54
33 -0.15
34 -0.15
35 0.12
36 -0.15
37 -0.15
38 0.08
39 0.08
4 -0.57
40 -0.15
41 0.28
42 0.28
5 -0.36
53 0.15
54 0.15
55 0.15
6 -0.36
64 0.15
65 0.15
66 0.15
67 0.15
68 0.37
69 0.15
7 -0.81
70 0.15
71 0.15
8 0.31
9 -0.42

> <PUBCHEM_EFFECTIVE_ROTOR_COUNT>
13.8

> <PUBCHEM_PHARMACOPHORE_FEATURES>
13
1 1 acceptor
1 11 donor
1 2 acceptor
1 3 acceptor
1 4 acceptor
1 5 acceptor
1 6 acceptor
1 7 cation
5 8 9 10 23 24 rings
6 15 16 19 20 21 22 rings
6 28 29 30 31 33 34 rings
6 35 36 37 38 39 40 rings
6 7 12 13 14 15 16 rings

> <PUBCHEM_HEAVY_ATOM_COUNT>
42

> <PUBCHEM_ATOM_DEF_STEREO_COUNT>
0

> <PUBCHEM_ATOM_UDEF_STEREO_COUNT>
0

> <PUBCHEM_BOND_DEF_STEREO_COUNT>
0

> <PUBCHEM_BOND_UDEF_STEREO_COUNT>
0

> <PUBCHEM_ISOTOPIC_ATOM_COUNT>
0

> <PUBCHEM_COMPONENT_COUNT>
1

> <PUBCHEM_CACTVS_TAUTO_COUNT>
12

> <PUBCHEM_CONFORMER_ID>
07E6F58E00000001

> <PUBCHEM_MMFF94_ENERGY>
151.8038

> <PUBCHEM_FEATURE_SELFOVERLAP>
66.006

> <PUBCHEM_SHAPE_FINGERPRINT>
10483366 6 18411698790115920611
117089 54 18049440637515245919
12758862 65 17275105063763854468
13165053 103 16126424203996903046
13726171 33 17825664457680651461
13811026 1 18341328968418663752
13947947 74 18413102841233279089
14068700 675 17489587874276309417
14394314 77 18337675209717994469
15082195 135 18413389835321872258
15160630 1 18341057389163193921
15781502 409 17968937630197443099
15890870 6 18408884018774446103
15975801 100 17386550368074571957
17492 54 18411135797181295115
20609170 92 18266741471251060776
21779490 71 15050292784167251178
21792965 158 17556007336972224824
23559900 14 18270667767175565473
4093350 32 15068888729394868339
5776283 40 18335699472952532273
6009941 240 17676492764992270507
6081469 158 13398629446589043731

> <PUBCHEM_SHAPE_MULTIPOLES>
804.22
24.15
4.23
1.89
11.38
0.36
1.8
2
-17.83
0.7
0.41
-0.26
0.39
0.02

> <PUBCHEM_SHAPE_SELFOVERLAP>
1730.123

> <PUBCHEM_SHAPE_VOLUME>
444.2

> <PUBCHEM_COORDINATE_TYPE>
2
5
10

$$$$