90655521
  -OEChem-03242010103D

 53 55  0     0  0  0  0  0  0999 V2000
    6.0068   -1.5572   -0.4526 O   0  0  0  0  0  0  0  0  0  0  0  0
    3.2302   -2.4226   -0.6672 O   0  0  0  0  0  0  0  0  0  0  0  0
    7.5397    0.6913    0.1171 O   0  0  0  0  0  0  0  0  0  0  0  0
   -6.6995   -1.7246    0.3656 O   0  0  0  0  0  0  0  0  0  0  0  0
   -4.8182    2.6367   -0.2465 O   0  0  0  0  0  0  0  0  0  0  0  0
   -7.0235    1.0210    0.1959 O   0  0  0  0  0  0  0  0  0  0  0  0
    1.9136    0.8476    0.1662 C   0  0  0  0  0  0  0  0  0  0  0  0
    3.4075    0.9681    0.1943 C   0  0  0  0  0  0  0  0  0  0  0  0
    4.0387   -0.2391   -0.1134 C   0  0  0  0  0  0  0  0  0  0  0  0
    1.6988   -0.5986   -0.2009 C   0  0  0  0  0  0  0  0  0  0  0  0
    3.0243   -1.2635   -0.3723 C   0  0  0  0  0  0  0  0  0  0  0  0
    5.4140   -0.3751   -0.1494 C   0  0  0  0  0  0  0  0  0  0  0  0
    4.1642    2.0919    0.4788 C   0  0  0  0  0  0  0  0  0  0  0  0
    6.1775    0.7571    0.1374 C   0  0  0  0  0  0  0  0  0  0  0  0
    0.5395   -1.2392   -0.3597 C   0  0  0  0  0  0  0  0  0  0  0  0
    5.5583    1.9804    0.4491 C   0  0  0  0  0  0  0  0  0  0  0  0
   -0.7521   -0.6056   -0.1962 C   0  0  0  0  0  0  0  0  0  0  0  0
   -1.9114   -1.2627   -0.3592 C   0  0  0  0  0  0  0  0  0  0  0  0
   -3.2498   -0.6645   -0.2129 C   0  0  0  0  0  0  0  0  0  0  0  0
   -3.4091    0.7186   -0.2987 C   0  0  0  0  0  0  0  0  0  0  0  0
   -4.3580   -1.4815    0.0103 C   0  0  0  0  0  0  0  0  0  0  0  0
    6.2934   -2.4417    0.6323 C   0  0  0  0  0  0  0  0  0  0  0  0
   -5.6255   -0.9156    0.1479 C   0  0  0  0  0  0  0  0  0  0  0  0
   -4.6765    1.2846   -0.1612 C   0  0  0  0  0  0  0  0  0  0  0  0
   -5.7846    0.4675    0.0620 C   0  0  0  0  0  0  0  0  0  0  0  0
    8.2491    1.8898    0.4211 C   0  0  0  0  0  0  0  0  0  0  0  0
   -6.4498   -3.1270    0.4400 C   0  0  0  0  0  0  0  0  0  0  0  0
   -5.0660    3.1819   -1.5411 C   0  0  0  0  0  0  0  0  0  0  0  0
   -7.4315    1.3821    1.5135 C   0  0  0  0  0  0  0  0  0  0  0  0
    1.4999    1.0727    1.1543 H   0  0  0  0  0  0  0  0  0  0  0  0
    1.4966    1.5166   -0.5931 H   0  0  0  0  0  0  0  0  0  0  0  0
    3.6922    3.0385    0.7200 H   0  0  0  0  0  0  0  0  0  0  0  0
    0.5398   -2.2931   -0.6276 H   0  0  0  0  0  0  0  0  0  0  0  0
    6.1034    2.8899    0.6794 H   0  0  0  0  0  0  0  0  0  0  0  0
   -0.7413    0.4420    0.0860 H   0  0  0  0  0  0  0  0  0  0  0  0
   -1.8972   -2.3200   -0.6170 H   0  0  0  0  0  0  0  0  0  0  0  0
   -2.5742    1.3865   -0.4917 H   0  0  0  0  0  0  0  0  0  0  0  0
   -4.1776   -2.5500    0.0701 H   0  0  0  0  0  0  0  0  0  0  0  0
    6.6963   -3.3701    0.2187 H   0  0  0  0  0  0  0  0  0  0  0  0
    5.3851   -2.6740    1.1970 H   0  0  0  0  0  0  0  0  0  0  0  0
    7.0431   -1.9985    1.2952 H   0  0  0  0  0  0  0  0  0  0  0  0
    9.3171    1.6555    0.3595 H   0  0  0  0  0  0  0  0  0  0  0  0
    8.0577    2.2243    1.4464 H   0  0  0  0  0  0  0  0  0  0  0  0
    8.0545    2.6739   -0.3186 H   0  0  0  0  0  0  0  0  0  0  0  0
   -5.8070   -3.3785    1.2904 H   0  0  0  0  0  0  0  0  0  0  0  0
   -6.0642   -3.5198   -0.5071 H   0  0  0  0  0  0  0  0  0  0  0  0
   -7.4137   -3.6161    0.6164 H   0  0  0  0  0  0  0  0  0  0  0  0
   -4.2313    2.9640   -2.2149 H   0  0  0  0  0  0  0  0  0  0  0  0
   -5.9976    2.7835   -1.9554 H   0  0  0  0  0  0  0  0  0  0  0  0
   -5.1626    4.2666   -1.4432 H   0  0  0  0  0  0  0  0  0  0  0  0
   -8.4374    1.8068    1.4561 H   0  0  0  0  0  0  0  0  0  0  0  0
   -6.7574    2.1357    1.9327 H   0  0  0  0  0  0  0  0  0  0  0  0
   -7.4605    0.5015    2.1630 H   0  0  0  0  0  0  0  0  0  0  0  0
  1 12  1  0  0  0  0
  1 22  1  0  0  0  0
  2 11  2  0  0  0  0
  3 14  1  0  0  0  0
  3 26  1  0  0  0  0
  4 23  1  0  0  0  0
  4 27  1  0  0  0  0
  5 24  1  0  0  0  0
  5 28  1  0  0  0  0
  6 25  1  0  0  0  0
  6 29  1  0  0  0  0
  7  8  1  0  0  0  0
  7 10  1  0  0  0  0
  7 30  1  0  0  0  0
  7 31  1  0  0  0  0
  8  9  2  0  0  0  0
  8 13  1  0  0  0  0
  9 11  1  0  0  0  0
  9 12  1  0  0  0  0
 10 11  1  0  0  0  0
 10 15  2  0  0  0  0
 12 14  2  0  0  0  0
 13 16  2  0  0  0  0
 13 32  1  0  0  0  0
 14 16  1  0  0  0  0
 15 17  1  0  0  0  0
 15 33  1  0  0  0  0
 16 34  1  0  0  0  0
 17 18  2  0  0  0  0
 17 35  1  0  0  0  0
 18 19  1  0  0  0  0
 18 36  1  0  0  0  0
 19 20  2  0  0  0  0
 19 21  1  0  0  0  0
 20 24  1  0  0  0  0
 20 37  1  0  0  0  0
 21 23  2  0  0  0  0
 21 38  1  0  0  0  0
 22 39  1  0  0  0  0
 22 40  1  0  0  0  0
 22 41  1  0  0  0  0
 23 25  1  0  0  0  0
 24 25  2  0  0  0  0
 26 42  1  0  0  0  0
 26 43  1  0  0  0  0
 26 44  1  0  0  0  0
 27 45  1  0  0  0  0
 27 46  1  0  0  0  0
 27 47  1  0  0  0  0
 28 48  1  0  0  0  0
 28 49  1  0  0  0  0
 28 50  1  0  0  0  0
 29 51  1  0  0  0  0
 29 52  1  0  0  0  0
 29 53  1  0  0  0  0
M  END
> <PUBCHEM_COMPOUND_CID>
90655521

> <PUBCHEM_CONFORMER_RMSD>
0.8

> <PUBCHEM_CONFORMER_DIVERSEORDER>
4
5
8
1
9
7
3
10
2
6

> <PUBCHEM_MMFF94_PARTIAL_CHARGES>
36
1 -0.36
10 -0.12
11 0.47
12 0.08
13 -0.15
14 0.08
15 -0.15
16 -0.15
17 -0.15
18 -0.18
19 0.03
2 -0.57
20 -0.15
21 -0.15
22 0.28
23 0.08
24 0.08
25 0.08
26 0.28
27 0.28
28 0.28
29 0.28
3 -0.36
32 0.15
33 0.15
34 0.15
35 0.15
36 0.15
37 0.15
38 0.15
4 -0.36
5 -0.36
6 -0.36
7 0.28
8 -0.14
9 0.09

> <PUBCHEM_EFFECTIVE_ROTOR_COUNT>
7.2

> <PUBCHEM_PHARMACOPHORE_FEATURES>
9
1 1 acceptor
1 2 acceptor
1 3 acceptor
1 4 acceptor
1 5 acceptor
1 6 acceptor
5 7 8 9 10 11 rings
6 19 20 21 23 24 25 rings
6 8 9 12 13 14 16 rings

> <PUBCHEM_HEAVY_ATOM_COUNT>
29

> <PUBCHEM_ATOM_DEF_STEREO_COUNT>
0

> <PUBCHEM_ATOM_UDEF_STEREO_COUNT>
0

> <PUBCHEM_BOND_DEF_STEREO_COUNT>
2

> <PUBCHEM_BOND_UDEF_STEREO_COUNT>
0

> <PUBCHEM_ISOTOPIC_ATOM_COUNT>
0

> <PUBCHEM_COMPONENT_COUNT>
1

> <PUBCHEM_CACTVS_TAUTO_COUNT>
1

> <PUBCHEM_CONFORMER_ID>
05674B2100000004

> <PUBCHEM_MMFF94_ENERGY>
131.3202

> <PUBCHEM_FEATURE_SELFOVERLAP>
45.773

> <PUBCHEM_SHAPE_FINGERPRINT>
10 15 18261114058817115841
100830 39 18409728430914523917
10100884 174 17753610445002553035
10411042 1 17838059205232565334
10835480 77 18342458123789267463
11315181 36 18342739633616339867
11719270 70 17988641870398678686
12166972 35 18335987544477205188
13073987 5 18334009484488416122
13167372 99 18272090474416735984
13533116 47 14189309123395481142
13785724 45 17909549455143508646
14251764 18 18335417997928309686
14849402 71 18338519758785381204
14933364 13 18412265042635474213
15183329 4 16774080674011135256
15419008 145 18261941965551480168
1577012 14 18059851783646496446
16989713 51 17059201722323779935
17844677 252 18410580582585240759
18608769 82 18411701032452917459
19611394 137 18044383961810508571
20281389 69 18408323259174749884
21033648 29 18272358824173837504
21130935 74 18410012130653022466
21279426 13 18340769239437344684
21315763 129 18409167710016961135
23569943 247 17606108499172383042
3383291 50 17459198529138651979
3663271 9 18261108569289982962
4073 2 18260834825228401570
4098825 35 18410573985167340778
4144715 1 18336837398367195155
45377200 153 15141548877506332570
5104073 3 18409170987414975819
58083652 198 15719392884062029205
9953998 17 18408047317149631817
9996256 80 18410009961678180719

> <PUBCHEM_SHAPE_MULTIPOLES>
561.59
25.52
3.07
0.86
2.13
0.15
0.01
5.03
4.82
-2.1
-0.22
-0.86
0.32
1.41

> <PUBCHEM_SHAPE_SELFOVERLAP>
1208.985

> <PUBCHEM_SHAPE_VOLUME>
314.9

> <PUBCHEM_COORDINATE_TYPE>
2
5
10

$$$$