5320675
  -OEChem-03242010103D

 36 38  0     0  0  0  0  0  0999 V2000
   -4.7317   -2.0550   -0.1386 O   0  0  0  0  0  0  0  0  0  0  0  0
   -2.6192    2.1104   -0.0658 O   0  0  0  0  0  0  0  0  0  0  0  0
   -0.1387    2.0741    0.9026 O   0  0  0  0  0  0  0  0  0  0  0  0
    2.5936    1.5682    1.5600 O   0  0  0  0  0  0  0  0  0  0  0  0
   -3.6717   -0.0605   -0.0954 C   0  0  0  0  0  0  0  0  0  0  0  0
   -2.5295    0.7485    0.0364 C   0  0  0  0  0  0  0  0  0  0  0  0
   -1.2930    0.1327    0.2737 C   0  0  0  0  0  0  0  0  0  0  0  0
   -3.5256   -1.4395    0.0156 C   0  0  0  0  0  0  0  0  0  0  0  0
   -1.1881   -1.2567    0.3785 C   0  0  0  0  0  0  0  0  0  0  0  0
   -2.3106   -2.0803    0.2510 C   0  0  0  0  0  0  0  0  0  0  0  0
   -5.0537    0.1635   -0.3312 C   0  0  0  0  0  0  0  0  0  0  0  0
   -0.0861    0.9367    0.4161 C   0  0  0  0  0  0  0  0  0  0  0  0
   -5.6501   -1.0760   -0.3480 C   0  0  0  0  0  0  0  0  0  0  0  0
    1.2275    0.3387   -0.0062 C   0  0  0  0  0  0  0  0  0  0  0  0
    2.4138    0.6443    0.5519 C   0  0  0  0  0  0  0  0  0  0  0  0
    3.6675    0.0160    0.0907 C   0  0  0  0  0  0  0  0  0  0  0  0
    4.3909    0.6172   -0.9248 C   0  0  0  0  0  0  0  0  0  0  0  0
    4.0923   -1.1600    0.6842 C   0  0  0  0  0  0  0  0  0  0  0  0
   -2.4598    2.6683   -1.3655 C   0  0  0  0  0  0  0  0  0  0  0  0
    5.5758    0.0239   -1.3604 C   0  0  0  0  0  0  0  0  0  0  0  0
    5.2772   -1.7534    0.2488 C   0  0  0  0  0  0  0  0  0  0  0  0
    6.0190   -1.1613   -0.7736 C   0  0  0  0  0  0  0  0  0  0  0  0
   -0.2384   -1.7438    0.5870 H   0  0  0  0  0  0  0  0  0  0  0  0
   -2.2386   -3.1580    0.3368 H   0  0  0  0  0  0  0  0  0  0  0  0
   -5.5536    1.1115   -0.4716 H   0  0  0  0  0  0  0  0  0  0  0  0
   -6.6666   -1.4130   -0.4895 H   0  0  0  0  0  0  0  0  0  0  0  0
    1.1807   -0.4082   -0.7954 H   0  0  0  0  0  0  0  0  0  0  0  0
    4.0563    1.5410   -1.3892 H   0  0  0  0  0  0  0  0  0  0  0  0
    3.5233   -1.6302    1.4818 H   0  0  0  0  0  0  0  0  0  0  0  0
   -3.2673    2.3369   -2.0259 H   0  0  0  0  0  0  0  0  0  0  0  0
   -1.4909    2.3938   -1.7945 H   0  0  0  0  0  0  0  0  0  0  0  0
   -2.5059    3.7574   -1.2791 H   0  0  0  0  0  0  0  0  0  0  0  0
    6.1535    0.4849   -2.1563 H   0  0  0  0  0  0  0  0  0  0  0  0
    5.6225   -2.6762    0.7056 H   0  0  0  0  0  0  0  0  0  0  0  0
    6.9416   -1.6233   -1.1126 H   0  0  0  0  0  0  0  0  0  0  0  0
    1.7270    1.9344    1.8031 H   0  0  0  0  0  0  0  0  0  0  0  0
  1  8  1  0  0  0  0
  1 13  1  0  0  0  0
  2  6  1  0  0  0  0
  2 19  1  0  0  0  0
  3 12  2  0  0  0  0
  4 15  1  0  0  0  0
  4 36  1  0  0  0  0
  5  6  1  0  0  0  0
  5  8  2  0  0  0  0
  5 11  1  0  0  0  0
  6  7  2  0  0  0  0
  7  9  1  0  0  0  0
  7 12  1  0  0  0  0
  8 10  1  0  0  0  0
  9 10  2  0  0  0  0
  9 23  1  0  0  0  0
 10 24  1  0  0  0  0
 11 13  2  0  0  0  0
 11 25  1  0  0  0  0
 12 14  1  0  0  0  0
 13 26  1  0  0  0  0
 14 15  2  0  0  0  0
 14 27  1  0  0  0  0
 15 16  1  0  0  0  0
 16 17  2  0  0  0  0
 16 18  1  0  0  0  0
 17 20  1  0  0  0  0
 17 28  1  0  0  0  0
 18 21  2  0  0  0  0
 18 29  1  0  0  0  0
 19 30  1  0  0  0  0
 19 31  1  0  0  0  0
 19 32  1  0  0  0  0
 20 22  2  0  0  0  0
 20 33  1  0  0  0  0
 21 22  1  0  0  0  0
 21 34  1  0  0  0  0
 22 35  1  0  0  0  0
M  END
> <PUBCHEM_COMPOUND_CID>
5320675

> <PUBCHEM_CONFORMER_RMSD>
0.6

> <PUBCHEM_CONFORMER_DIVERSEORDER>
1
32
9
50
53
4
19
3
15
42
21
25
52
8
48
7
16
23
49
6
35
10
39
12
44
28
5
47
43
45
20
36
34
17
14
46
41
26
11
37
2
51
33
40
31
22
18
24
30
27
13
29
38

> <PUBCHEM_MMFF94_PARTIAL_CHARGES>
32
1 -0.28
10 -0.15
11 -0.15
12 0.47
13 -0.01
14 -0.14
15 0.05
16 0.03
17 -0.15
18 -0.15
19 0.28
2 -0.36
20 -0.15
21 -0.15
22 -0.15
23 0.15
24 0.15
25 0.15
26 0.15
27 0.15
28 0.15
29 0.15
3 -0.57
33 0.15
34 0.15
35 0.15
36 0.45
4 -0.53
6 0.08
7 0.09
8 0.14
9 -0.15

> <PUBCHEM_EFFECTIVE_ROTOR_COUNT>
4

> <PUBCHEM_PHARMACOPHORE_FEATURES>
7
1 1 acceptor
1 2 acceptor
1 3 acceptor
1 4 donor
5 1 5 8 11 13 rings
6 16 17 18 20 21 22 rings
6 5 6 7 8 9 10 rings

> <PUBCHEM_HEAVY_ATOM_COUNT>
22

> <PUBCHEM_ATOM_DEF_STEREO_COUNT>
0

> <PUBCHEM_ATOM_UDEF_STEREO_COUNT>
0

> <PUBCHEM_BOND_DEF_STEREO_COUNT>
1

> <PUBCHEM_BOND_UDEF_STEREO_COUNT>
0

> <PUBCHEM_ISOTOPIC_ATOM_COUNT>
0

> <PUBCHEM_COMPONENT_COUNT>
1

> <PUBCHEM_CACTVS_TAUTO_COUNT>
3

> <PUBCHEM_CONFORMER_ID>
00512FE300000001

> <PUBCHEM_MMFF94_ENERGY>
72.5801

> <PUBCHEM_FEATURE_SELFOVERLAP>
35.632

> <PUBCHEM_SHAPE_FINGERPRINT>
10369192 42 17838881974642250352
10595046 47 18187368727373352564
11128504 68 17385726911095299918
11524674 6 16774078475331233167
11578080 2 16953079935012089111
12107183 9 17466496811986225402
12236239 1 17603868892395394118
12403259 415 18342166761165228625
12516196 113 17989205967086573848
12760667 363 18272653445934878811
12954195 1 18339921511756885829
13167823 11 18333450924418650790
13288520 33 18342177778362490959
13402501 40 18272654549541338838
13533116 47 17774438416219341489
13862211 1 18272365404169677847
14251757 5 18260270780079067779
14347332 77 18335133168075615295
14617045 38 18410580582237659267
14790565 3 17261320193933058169
14910302 57 18409719686292284068
15183329 4 18335139769445883782
15188451 53 15051437363039168349
15250474 111 18114172000329083354
17804303 29 18340768229961819833
17844677 252 18342181068139199984
17857418 61 18410290302968115642
17870717 6 18412554192729487543
18222031 100 17418097633044697592
18681886 176 18411138040056283674
200 152 17346881160822266491
20374829 77 18342738520096275042
20403669 9 18202005430051299838
20645477 70 17846781815257313652
20871999 31 18261112958841413584
21033650 10 17972343740936112308
21236236 1 18412546475327462041
21267235 1 18336831991889508443
21279426 13 18412535505949255025
221357 26 18411135844373089888
2215653 11 18343014510663512463
2297311 6 18408609175537807445
23175994 123 17489587887641272089
23198884 109 16515405157397427362
23402539 116 18410569592064565453
23522609 53 18125754311387094561
23559900 14 18340199799408881712
239999 70 18131072667206268862
3004659 81 18333450933277675722
3298306 158 18272084946715387150
335352 9 18411698786575398877
350125 39 18337390440231718489
4214541 1 18336547127471275812
4340502 62 12679468598695907437
44062 13 18272087261871662055
465052 167 17917717924308973902
5104073 3 17917709080950122080
559249 180 18263075514314677970
59755656 215 18340767040319416415
59755656 520 18196373620310530281
7237137 82 18260830371304779900
7495541 125 18201438095236910624
8863177 126 18196940091688748131
960060 61 18187368753101049094
9709674 26 18195242441144504419

> <PUBCHEM_SHAPE_MULTIPOLES>
429.27
14.11
2.3
1.03
8.64
0.5
-0.04
-6.16
-4.03
-1.73
-0.1
0.89
0.39
0.31

> <PUBCHEM_SHAPE_SELFOVERLAP>
947.71

> <PUBCHEM_SHAPE_VOLUME>
232

> <PUBCHEM_COORDINATE_TYPE>
2
5
10

$$$$