14133592
  -OEChem-03242010103D

 42 44  0     0  0  0  0  0  0999 V2000
    3.5945    1.0224   -0.0099 O   0  0  0  0  0  0  0  0  0  0  0  0
   -1.0903    1.7283   -0.1971 O   0  0  0  0  0  0  0  0  0  0  0  0
   -3.3379    2.1171   -0.2840 O   0  0  0  0  0  0  0  0  0  0  0  0
   -4.0883   -0.6093   -0.2536 C   0  0  0  0  0  0  0  0  0  0  0  0
    4.7581    0.1748    0.1009 C   0  0  0  0  0  0  0  0  0  0  0  0
   -2.6600   -0.1578   -0.2123 C   0  0  0  0  0  0  0  0  0  0  0  0
   -0.2621   -0.5519   -0.1174 C   0  0  0  0  0  0  0  0  0  0  0  0
    2.1356   -0.9294   -0.0205 C   0  0  0  0  0  0  0  0  0  0  0  0
    2.3536    0.4516   -0.0408 C   0  0  0  0  0  0  0  0  0  0  0  0
   -1.6368   -1.0208   -0.1571 C   0  0  0  0  0  0  0  0  0  0  0  0
   -0.0208    0.8153   -0.1381 C   0  0  0  0  0  0  0  0  0  0  0  0
    4.4955   -1.3127    0.0951 C   0  0  0  0  0  0  0  0  0  0  0  0
    0.8248   -1.4289   -0.0590 C   0  0  0  0  0  0  0  0  0  0  0  0
   -4.7330   -0.1107   -1.5623 C   0  0  0  0  0  0  0  0  0  0  0  0
   -4.1261   -2.1505   -0.2436 C   0  0  0  0  0  0  0  0  0  0  0  0
    1.2720    1.3317   -0.1015 C   0  0  0  0  0  0  0  0  0  0  0  0
    3.2695   -1.8364    0.0373 C   0  0  0  0  0  0  0  0  0  0  0  0
    5.4527    0.5607    1.4122 C   0  0  0  0  0  0  0  0  0  0  0  0
    5.6611    0.5318   -1.0858 C   0  0  0  0  0  0  0  0  0  0  0  0
   -2.4172    1.3080   -0.2351 C   0  0  0  0  0  0  0  0  0  0  0  0
   -4.9283   -0.1047    0.9139 C   0  0  0  0  0  0  0  0  0  0  0  0
   -4.5165    0.1712    2.1586 C   0  0  0  0  0  0  0  0  0  0  0  0
   -1.7399   -2.0979   -0.1362 H   0  0  0  0  0  0  0  0  0  0  0  0
    5.3497   -1.9838    0.1447 H   0  0  0  0  0  0  0  0  0  0  0  0
    0.6540   -2.5039   -0.0431 H   0  0  0  0  0  0  0  0  0  0  0  0
   -4.9458    0.9629   -1.5686 H   0  0  0  0  0  0  0  0  0  0  0  0
   -5.6951   -0.6099   -1.7367 H   0  0  0  0  0  0  0  0  0  0  0  0
   -4.1000   -0.3319   -2.4306 H   0  0  0  0  0  0  0  0  0  0  0  0
   -5.1665   -2.5019   -0.2857 H   0  0  0  0  0  0  0  0  0  0  0  0
   -3.7080   -2.5833    0.6741 H   0  0  0  0  0  0  0  0  0  0  0  0
   -3.6324   -2.5923   -1.1183 H   0  0  0  0  0  0  0  0  0  0  0  0
    1.4347    2.4058   -0.1192 H   0  0  0  0  0  0  0  0  0  0  0  0
    3.1096   -2.9079    0.0374 H   0  0  0  0  0  0  0  0  0  0  0  0
    4.8046    0.3548    2.2727 H   0  0  0  0  0  0  0  0  0  0  0  0
    6.3942    0.0185    1.5536 H   0  0  0  0  0  0  0  0  0  0  0  0
    5.6669    1.6356    1.4390 H   0  0  0  0  0  0  0  0  0  0  0  0
    6.6126   -0.0106   -1.0563 H   0  0  0  0  0  0  0  0  0  0  0  0
    5.1644    0.3038   -2.0366 H   0  0  0  0  0  0  0  0  0  0  0  0
    5.8781    1.6065   -1.1020 H   0  0  0  0  0  0  0  0  0  0  0  0
   -5.9984   -0.0143    0.7285 H   0  0  0  0  0  0  0  0  0  0  0  0
   -5.2284    0.4975    2.9093 H   0  0  0  0  0  0  0  0  0  0  0  0
   -3.4799    0.0722    2.4588 H   0  0  0  0  0  0  0  0  0  0  0  0
  1  5  1  0  0  0  0
  1  9  1  0  0  0  0
  2 11  1  0  0  0  0
  2 20  1  0  0  0  0
  3 20  2  0  0  0  0
  4  6  1  0  0  0  0
  4 14  1  0  0  0  0
  4 15  1  0  0  0  0
  4 21  1  0  0  0  0
  5 12  1  0  0  0  0
  5 18  1  0  0  0  0
  5 19  1  0  0  0  0
  6 10  2  0  0  0  0
  6 20  1  0  0  0  0
  7 10  1  0  0  0  0
  7 11  1  0  0  0  0
  7 13  2  0  0  0  0
  8  9  2  0  0  0  0
  8 13  1  0  0  0  0
  8 17  1  0  0  0  0
  9 16  1  0  0  0  0
 10 23  1  0  0  0  0
 11 16  2  0  0  0  0
 12 17  2  0  0  0  0
 12 24  1  0  0  0  0
 13 25  1  0  0  0  0
 14 26  1  0  0  0  0
 14 27  1  0  0  0  0
 14 28  1  0  0  0  0
 15 29  1  0  0  0  0
 15 30  1  0  0  0  0
 15 31  1  0  0  0  0
 16 32  1  0  0  0  0
 17 33  1  0  0  0  0
 18 34  1  0  0  0  0
 18 35  1  0  0  0  0
 18 36  1  0  0  0  0
 19 37  1  0  0  0  0
 19 38  1  0  0  0  0
 19 39  1  0  0  0  0
 21 22  2  0  0  0  0
 21 40  1  0  0  0  0
 22 41  1  0  0  0  0
 22 42  1  0  0  0  0
M  END
> <PUBCHEM_COMPOUND_CID>
14133592

> <PUBCHEM_CONFORMER_RMSD>
0.6

> <PUBCHEM_CONFORMER_DIVERSEORDER>
1
4
3
5
2

> <PUBCHEM_MMFF94_PARTIAL_CHARGES>
26
1 -0.36
10 -0.18
11 0.08
12 -0.29
13 -0.15
16 -0.15
17 -0.18
2 -0.23
20 0.71
21 -0.29
22 -0.3
23 0.15
24 0.15
25 0.15
3 -0.57
32 0.15
33 0.15
4 0.28
40 0.15
41 0.15
42 0.15
5 0.42
6 -0.12
7 0.03
8 0.03
9 0.08

> <PUBCHEM_EFFECTIVE_ROTOR_COUNT>
2.4

> <PUBCHEM_PHARMACOPHORE_FEATURES>
8
1 1 acceptor
1 22 hydrophobe
1 3 acceptor
3 4 14 15 hydrophobe
3 5 18 19 hydrophobe
6 1 5 8 9 12 17 rings
6 2 6 7 10 11 20 rings
6 7 8 9 11 13 16 rings

> <PUBCHEM_HEAVY_ATOM_COUNT>
22

> <PUBCHEM_ATOM_DEF_STEREO_COUNT>
0

> <PUBCHEM_ATOM_UDEF_STEREO_COUNT>
0

> <PUBCHEM_BOND_DEF_STEREO_COUNT>
0

> <PUBCHEM_BOND_UDEF_STEREO_COUNT>
0

> <PUBCHEM_ISOTOPIC_ATOM_COUNT>
0

> <PUBCHEM_COMPONENT_COUNT>
1

> <PUBCHEM_CACTVS_TAUTO_COUNT>
1

> <PUBCHEM_CONFORMER_ID>
00D7A95800000001

> <PUBCHEM_MMFF94_ENERGY>
78.4813

> <PUBCHEM_FEATURE_SELFOVERLAP>
40.654

> <PUBCHEM_SHAPE_FINGERPRINT>
10366900 7 18131060550470875107
10670039 82 18188503384993091812
11287383 113 16226053322651327958
11796584 16 16009019566956094058
12107183 9 17688304590939231658
12236239 1 17632578253403814979
12390115 104 18057901159909190393
12403259 415 18343578543181125712
12596602 18 17060338552151782554
13140716 1 18193563495605185195
13544653 18 18335140886290179685
13862211 1 18408878559991896518
14251764 18 18343305856271511425
14341114 176 18410018710315293235
14787075 74 18335142024619939616
15196674 1 18338232670259280990
15209294 21 17775295928331484193
15788980 27 17675922105624825807
17349148 13 17967817162764111884
17844677 252 18410860919343078308
1813 80 17240490186561952428
18927931 339 18335708234559312991
19489759 90 14490187211238484167
200 152 18201429281969014789
21033648 29 18040701589694223453
21267235 1 18409737240219242286
23402539 116 18261103101954643127
23522609 53 18124346940872328848
23536379 177 15841557366488122924
23559900 14 18338789138775256408
26918003 58 17676209087261098667
300161 21 18131630071724018779
335352 9 18410572903721896589
34797466 226 16630244813660437392
350125 39 18410295800626669605
4214541 1 18410290276807778829
4325135 7 18334579048923121014
4340502 62 16515402984914064042
474 4 17313393370146826220
5104073 3 18337951169475857032
542803 24 16773798099638873714
59755656 520 10879993550179906429
9709674 26 18411141298997958350

> <PUBCHEM_SHAPE_MULTIPOLES>
435.14
13.01
1.8
1.15
4.99
0.15
-0.38
0.44
-1.27
-0.41
0.14
-0.94
-0.14
-0.14

> <PUBCHEM_SHAPE_SELFOVERLAP>
948.699

> <PUBCHEM_SHAPE_VOLUME>
237.7

> <PUBCHEM_COORDINATE_TYPE>
2
5
10

$$$$