170
 OpenBabel03292022023D

220221  0  0  1  0  0  0  0  0999 V2000
    9.7006   -3.3585   -5.0415 C   0  0  0  0  0  0  0  0  0  0  0  0
    9.1651   -3.2750   -3.6544 C   0  0  0  0  0  0  0  0  0  0  0  0
    7.9453   -3.6653   -3.3349 C   0  0  0  0  0  0  0  0  0  0  0  0
    7.3463   -3.5993   -1.9665 C   0  0  0  0  0  0  0  0  0  0  0  0
    8.2400   -3.3367   -0.6873 C   0  0  1  0  0  0  0  0  0  0  0  0
    7.0642   -3.1252    0.3576 C   0  0  0  0  0  0  0  0  0  0  0  0
    9.3150   -4.5550   -0.2742 C   0  0  1  0  0  0  0  0  0  0  0  0
    8.9889   -5.8046   -0.9139 O   0  0  0  0  0  0  0  0  0  0  0  0
   10.7753   -4.6621    0.7584 C   0  0  1  0  0  0  0  0  0  0  0  0
   12.6340   -4.4585    0.3589 C   0  0  0  0  0  0  0  0  0  0  0  0
   12.9542   -3.4702   -0.3215 O   0  0  0  0  0  0  0  0  0  0  0  0
   13.8299   -5.3039    0.9575 N   0  0  0  0  0  0  0  0  0  0  0  0
   15.5753   -4.9783    1.3783 C   0  0  1  0  0  0  0  0  0  0  0  0
   15.4812   -4.6387    2.8280 C   0  0  0  0  0  0  0  0  0  0  0  0
   16.2800   -3.3631    3.1633 C   0  0  0  0  0  0  0  0  0  0  0  0
   17.3270   -5.7102    1.4793 C   0  0  0  0  0  0  0  0  0  0  0  0
   17.7621   -6.2672    0.4575 O   0  0  0  0  0  0  0  0  0  0  0  0
   18.3648   -5.5434    2.6613 N   0  0  0  0  0  0  0  0  0  0  0  0
   18.0059   -5.4119    4.0856 C   0  0  0  0  0  0  0  0  0  0  0  0
   20.0674   -5.7425    2.6202 C   0  0  2  0  0  0  0  0  0  0  0  0
   20.3954   -7.2014    3.0407 C   0  0  0  0  0  0  0  0  0  0  0  0
   20.9777   -4.8889    3.8000 C   0  0  0  0  0  0  0  0  0  0  0  0
   20.3432   -4.7220    4.8456 O   0  0  0  0  0  0  0  0  0  0  0  0
   22.3513   -4.5034    3.8430 N   0  0  0  0  0  0  0  0  0  0  0  0
   23.1701   -4.6075    2.6478 C   0  0  0  0  0  0  0  0  0  0  0  0
   22.9870   -3.5228    5.0132 C   0  0  1  0  0  0  0  0  0  0  0  0
   22.0054   -3.0043    6.0577 C   0  0  1  0  0  0  0  0  0  0  0  0
   21.0986   -2.0211    5.4103 C   0  0  0  0  0  0  0  0  0  0  0  0
   21.2929   -3.8863    7.0740 C   0  0  0  0  0  0  0  0  0  0  0  0
   22.0117   -5.1132    7.4454 N   0  0  0  0  0  0  0  0  0  0  0  0
   22.8902   -4.9056    8.5913 C   0  0  0  0  0  0  0  0  0  0  0  0
   22.1511   -4.4280    9.8536 C   0  0  0  0  0  0  0  0  0  0  0  0
   21.0820   -5.3260   10.3098 N   0  0  0  0  0  0  0  0  0  0  0  0
   21.5939   -6.3140   11.2695 C   0  0  0  0  0  0  0  0  0  0  0  0
   21.9752   -5.6325   12.6021 C   0  0  0  0  0  0  0  0  0  0  0  0
   22.4534   -6.5925   13.5438 O   0  0  0  0  0  0  0  0  0  0  0  0
   22.8980   -5.9401   14.7300 C   0  0  0  0  0  0  0  0  0  0  0  0
   20.3281   -5.9177    9.1802 C   0  0  0  0  0  0  0  0  0  0  0  0
   21.0740   -6.1720    7.8405 C   0  0  0  0  0  0  0  0  0  0  0  0
   24.4963   -3.4712    5.6993 C   0  0  0  0  0  0  0  0  0  0  0  0
   25.4217   -4.0713    5.1241 O   0  0  0  0  0  0  0  0  0  0  0  0
   24.9340   -2.6661    6.7747 N   0  0  0  0  0  0  0  0  0  0  0  0
   24.3898   -1.7564    7.9514 C   0  0  1  0  0  0  0  0  0  0  0  0
   25.2306   -1.8874    9.2620 C   0  0  0  0  0  0  0  0  0  0  0  0
   24.3749   -1.5100   10.4979 C   0  0  0  0  0  0  0  0  0  0  0  0
   25.8247   -3.2705    9.5670 C   0  0  0  0  0  0  0  0  0  0  0  0
   24.0250   -0.2997    7.3781 C   0  0  0  0  0  0  0  0  0  0  0  0
   23.5477   -0.3412    6.2448 O   0  0  0  0  0  0  0  0  0  0  0  0
   24.0592    0.9311    8.0469 N   0  0  0  0  0  0  0  0  0  0  0  0
   24.8381    1.2436    9.2401 C   0  0  0  0  0  0  0  0  0  0  0  0
   23.3158    2.1581    7.5205 C   0  0  1  0  0  0  0  0  0  0  0  0
   22.9210    2.2125    6.0353 C   0  0  0  0  0  0  0  0  0  0  0  0
   24.0839    2.1093    5.0239 C   0  0  0  0  0  0  0  0  0  0  0  0
   23.5159    1.7609    3.6454 C   0  0  0  0  0  0  0  0  0  0  0  0
   24.9221    3.3820    4.9581 C   0  0  0  0  0  0  0  0  0  0  0  0
   22.2636    2.6890    8.5568 C   0  0  0  0  0  0  0  0  0  0  0  0
   22.6380    3.0330    9.6901 O   0  0  0  0  0  0  0  0  0  0  0  0
   20.9000    2.7821    8.3938 N   0  0  0  0  0  0  0  0  0  0  0  0
   20.0113    2.6929    7.2288 C   0  0  1  0  0  0  0  0  0  0  0  0
   18.6694    2.1245    7.7042 C   0  0  0  0  0  0  0  0  0  0  0  0
   19.9554    4.0831    6.5030 C   0  0  0  0  0  0  0  0  0  0  0  0
   20.8171    4.9420    6.7388 O   0  0  0  0  0  0  0  0  0  0  0  0
   19.1555    4.3553    5.4191 N   0  0  0  0  0  0  0  0  0  0  0  0
   17.6885    4.5906    5.4233 C   0  0  2  0  0  0  0  0  0  0  0  0
   17.2091    5.2192    6.7312 C   0  0  0  0  0  0  0  0  0  0  0  0
   16.8035    3.3975    4.9328 C   0  0  0  0  0  0  0  0  0  0  0  0
   16.2251    2.6929    5.7601 O   0  0  0  0  0  0  0  0  0  0  0  0
   16.7710    3.0976    3.5651 N   0  0  0  0  0  0  0  0  0  0  0  0
   16.8255    4.1258    2.5313 C   0  0  0  0  0  0  0  0  0  0  0  0
   16.3661    1.7492    3.0812 C   0  0  1  0  0  0  0  0  0  0  0  0
   17.1490    0.6228    3.6738 C   0  0  0  0  0  0  0  0  0  0  0  0
   18.5983    0.5049    3.2871 C   0  0  0  0  0  0  0  0  0  0  0  0
   19.4654    1.6979    3.6570 C   0  0  0  0  0  0  0  0  0  0  0  0
   19.0360   -0.6825    4.0927 C   0  0  0  0  0  0  0  0  0  0  0  0
   14.8662    1.3847    3.0004 C   0  0  0  0  0  0  0  0  0  0  0  0
   14.3179    1.6444    1.9211 O   0  0  0  0  0  0  0  0  0  0  0  0
   14.1523    0.8857    4.0888 N   0  0  0  0  0  0  0  0  0  0  0  0
   14.6797    0.1271    5.2389 C   0  0  0  0  0  0  0  0  0  0  0  0
   12.6887    1.0883    4.1489 C   0  0  1  0  0  0  0  0  0  0  0  0
   12.2129    2.4297    3.6112 C   0  0  0  0  0  0  0  0  0  0  0  0
   10.7062    2.6332    3.7379 C   0  0  0  0  0  0  0  0  0  0  0  0
   10.2673    2.6871    5.1979 C   0  0  0  0  0  0  0  0  0  0  0  0
   10.3494    3.9080    2.9843 C   0  0  0  0  0  0  0  0  0  0  0  0
   11.8098   -0.1550    3.8282 C   0  0  0  0  0  0  0  0  0  0  0  0
   11.1863   -0.6713    4.7641 O   0  0  0  0  0  0  0  0  0  0  0  0
   11.8741   -0.7548    2.5825 N   0  0  0  0  0  0  0  0  0  0  0  0
   11.5997    0.0192    1.3753 C   0  0  0  0  0  0  0  0  0  0  0  0
   11.6222   -2.2196    2.4858 C   0  0  1  0  0  0  0  0  0  0  0  0
   12.1345   -3.0809    3.7155 C   0  0  0  0  0  0  0  0  0  0  0  0
   12.1338   -4.6428    3.7058 C   0  0  0  0  0  0  0  0  0  0  0  0
   13.5637   -2.6757    3.8148 C   0  0  0  0  0  0  0  0  0  0  0  0
   10.2205   -2.6358    2.2349 C   0  0  0  0  0  0  0  0  0  0  0  0
    9.2323   -1.8633    2.3143 O   0  0  0  0  0  0  0  0  0  0  0  0
   10.1599   -4.0152    2.0542 N   0  0  0  0  0  0  0  0  0  0  0  0
    9.0065   -4.6125    2.7700 C   0  0  0  0  0  0  0  0  0  0  0  0
   10.7827   -3.2147   -5.0157 H   0  0  0  0  0  0  0  0  0  0  0  0
    9.2728   -2.5806   -5.6816 H   0  0  0  0  0  0  0  0  0  0  0  0
    9.5014   -4.3456   -5.4711 H   0  0  0  0  0  0  0  0  0  0  0  0
    9.8341   -2.8879   -2.8897 H   0  0  0  0  0  0  0  0  0  0  0  0
    7.2543   -4.0120   -4.1133 H   0  0  0  0  0  0  0  0  0  0  0  0
    6.7542   -4.5132   -1.8112 H   0  0  0  0  0  0  0  0  0  0  0  0
    6.5901   -2.7989   -2.0451 H   0  0  0  0  0  0  0  0  0  0  0  0
    8.7692   -2.3828   -0.7815 H   0  0  0  0  0  0  0  0  0  0  0  0
    6.5344   -4.0663    0.5607 H   0  0  0  0  0  0  0  0  0  0  0  0
    6.2953   -2.4295   -0.0185 H   0  0  0  0  0  0  0  0  0  0  0  0
    7.3800   -2.6979    1.3010 H   0  0  0  0  0  0  0  0  0  0  0  0
    8.6767   -4.7560    0.5742 H   0  0  0  0  0  0  0  0  0  0  0  0
    8.0595   -5.9979   -0.6712 H   0  0  0  0  0  0  0  0  0  0  0  0
   10.7908   -5.7362    0.9993 H   0  0  0  0  0  0  0  0  0  0  0  0
   13.5472   -6.2018    1.3245 H   0  0  0  0  0  0  0  0  0  0  0  0
   15.7327   -4.0737    0.7738 H   0  0  0  0  0  0  0  0  0  0  0  0
   15.7596   -5.5514    3.3317 H   0  0  0  0  0  0  0  0  0  0  0  0
   14.4693   -4.6286    3.1670 H   0  0  0  0  0  0  0  0  0  0  0  0
   17.2746   -3.3363    2.7129 H   0  0  0  0  0  0  0  0  0  0  0  0
   16.3774   -3.2395    4.2472 H   0  0  0  0  0  0  0  0  0  0  0  0
   15.8261   -2.4543    2.7661 H   0  0  0  0  0  0  0  0  0  0  0  0
   17.0165   -5.6622    4.4244 H   0  0  0  0  0  0  0  0  0  0  0  0
   18.2407   -4.3915    4.4005 H   0  0  0  0  0  0  0  0  0  0  0  0
   18.5986   -6.1106    4.6785 H   0  0  0  0  0  0  0  0  0  0  0  0
   20.4084   -5.5296    1.6060 H   0  0  0  0  0  0  0  0  0  0  0  0
   20.0986   -7.3917    4.0831 H   0  0  0  0  0  0  0  0  0  0  0  0
   21.4775   -7.3864    3.0290 H   0  0  0  0  0  0  0  0  0  0  0  0
   19.8953   -7.9478    2.4239 H   0  0  0  0  0  0  0  0  0  0  0  0
   22.8191   -5.4047    1.9908 H   0  0  0  0  0  0  0  0  0  0  0  0
   24.2120   -4.7990    2.9215 H   0  0  0  0  0  0  0  0  0  0  0  0
   23.1180   -3.6558    2.1073 H   0  0  0  0  0  0  0  0  0  0  0  0
   23.1744   -2.6635    4.3412 H   0  0  0  0  0  0  0  0  0  0  0  0
   22.5621   -2.3412    6.6766 H   0  0  0  0  0  0  0  0  0  0  0  0
   20.4630   -2.5121    4.6819 H   0  0  0  0  0  0  0  0  0  0  0  0
   21.6935   -1.2716    4.8724 H   0  0  0  0  0  0  0  0  0  0  0  0
   20.4898   -1.5112    6.1627 H   0  0  0  0  0  0  0  0  0  0  0  0
   20.2598   -4.0919    6.7854 H   0  0  0  0  0  0  0  0  0  0  0  0
   21.1010   -3.2328    7.9303 H   0  0  0  0  0  0  0  0  0  0  0  0
   23.6710   -4.2111    8.3187 H   0  0  0  0  0  0  0  0  0  0  0  0
   23.4315   -5.8387    8.8166 H   0  0  0  0  0  0  0  0  0  0  0  0
   21.7157   -3.4329    9.7229 H   0  0  0  0  0  0  0  0  0  0  0  0
   22.9024   -4.2624   10.6234 H   0  0  0  0  0  0  0  0  0  0  0  0
   22.4492   -6.8685   10.8636 H   0  0  0  0  0  0  0  0  0  0  0  0
   20.8243   -7.0603   11.4960 H   0  0  0  0  0  0  0  0  0  0  0  0
   21.1004   -5.1175   13.0181 H   0  0  0  0  0  0  0  0  0  0  0  0
   22.7667   -4.8910   12.4607 H   0  0  0  0  0  0  0  0  0  0  0  0
   23.2609   -6.6974   15.4272 H   0  0  0  0  0  0  0  0  0  0  0  0
   22.0731   -5.3920   15.1966 H   0  0  0  0  0  0  0  0  0  0  0  0
   23.7199   -5.2511   14.5045 H   0  0  0  0  0  0  0  0  0  0  0  0
   19.5083   -5.2212    8.9617 H   0  0  0  0  0  0  0  0  0  0  0  0
   19.8385   -6.8509    9.4819 H   0  0  0  0  0  0  0  0  0  0  0  0
   20.3470   -6.3434    7.0367 H   0  0  0  0  0  0  0  0  0  0  0  0
   21.6417   -7.1080    7.9193 H   0  0  0  0  0  0  0  0  0  0  0  0
   25.9473   -2.6858    6.7729 H   0  0  0  0  0  0  0  0  0  0  0  0
   23.4221   -2.1614    8.2371 H   0  0  0  0  0  0  0  0  0  0  0  0
   26.0983   -1.2316    9.1771 H   0  0  0  0  0  0  0  0  0  0  0  0
   23.8133   -2.3612   10.8894 H   0  0  0  0  0  0  0  0  0  0  0  0
   23.6176   -0.7532   10.2851 H   0  0  0  0  0  0  0  0  0  0  0  0
   25.0090   -1.1508   11.3160 H   0  0  0  0  0  0  0  0  0  0  0  0
   25.0720   -3.9828    9.9099 H   0  0  0  0  0  0  0  0  0  0  0  0
   26.5463   -3.1870   10.3888 H   0  0  0  0  0  0  0  0  0  0  0  0
   26.3470   -3.7032    8.7128 H   0  0  0  0  0  0  0  0  0  0  0  0
   25.6809    0.5876    9.3850 H   0  0  0  0  0  0  0  0  0  0  0  0
   24.1882    1.2306   10.1222 H   0  0  0  0  0  0  0  0  0  0  0  0
   25.2632    2.2503    9.1612 H   0  0  0  0  0  0  0  0  0  0  0  0
   24.0697    2.9534    7.5858 H   0  0  0  0  0  0  0  0  0  0  0  0
   22.4057    3.1579    5.8345 H   0  0  0  0  0  0  0  0  0  0  0  0
   22.1908    1.4265    5.8306 H   0  0  0  0  0  0  0  0  0  0  0  0
   24.7723    1.3074    5.3021 H   0  0  0  0  0  0  0  0  0  0  0  0
   22.9487    2.5969    3.2241 H   0  0  0  0  0  0  0  0  0  0  0  0
   22.8489    0.8934    3.7046 H   0  0  0  0  0  0  0  0  0  0  0  0
   24.3190    1.5003    2.9491 H   0  0  0  0  0  0  0  0  0  0  0  0
   24.3038    4.2600    4.7489 H   0  0  0  0  0  0  0  0  0  0  0  0
   25.6783    3.2997    4.1703 H   0  0  0  0  0  0  0  0  0  0  0  0
   25.4512    3.5491    5.9014 H   0  0  0  0  0  0  0  0  0  0  0  0
   20.5065    3.2414    9.2145 H   0  0  0  0  0  0  0  0  0  0  0  0
   20.4227    1.9817    6.5390 H   0  0  0  0  0  0  0  0  0  0  0  0
   18.1102    2.8371    8.3063 H   0  0  0  0  0  0  0  0  0  0  0  0
   18.8349    1.2357    8.3216 H   0  0  0  0  0  0  0  0  0  0  0  0
   18.0716    1.8095    6.8551 H   0  0  0  0  0  0  0  0  0  0  0  0
   19.6000    5.1511    4.9726 H   0  0  0  0  0  0  0  0  0  0  0  0
   17.5435    5.3910    4.6947 H   0  0  0  0  0  0  0  0  0  0  0  0
   17.6215    4.7360    7.6166 H   0  0  0  0  0  0  0  0  0  0  0  0
   16.1190    5.2011    6.8124 H   0  0  0  0  0  0  0  0  0  0  0  0
   17.5353    6.2654    6.7753 H   0  0  0  0  0  0  0  0  0  0  0  0
   17.4226    4.9883    2.8195 H   0  0  0  0  0  0  0  0  0  0  0  0
   15.8028    4.4543    2.3252 H   0  0  0  0  0  0  0  0  0  0  0  0
   17.2694    3.7190    1.6176 H   0  0  0  0  0  0  0  0  0  0  0  0
   16.6747    1.7324    2.0227 H   0  0  0  0  0  0  0  0  0  0  0  0
   16.6845   -0.3206    3.3578 H   0  0  0  0  0  0  0  0  0  0  0  0
   17.0989    0.6917    4.7634 H   0  0  0  0  0  0  0  0  0  0  0  0
   18.7280    0.2870    2.2226 H   0  0  0  0  0  0  0  0  0  0  0  0
   19.2673    1.9710    4.6898 H   0  0  0  0  0  0  0  0  0  0  0  0
   19.2856    2.5557    3.0085 H   0  0  0  0  0  0  0  0  0  0  0  0
   20.5317    1.4624    3.5878 H   0  0  0  0  0  0  0  0  0  0  0  0
   18.4747   -0.8439    5.0269 H   0  0  0  0  0  0  0  0  0  0  0  0
   20.0468   -0.4509    4.3724 H   0  0  0  0  0  0  0  0  0  0  0  0
   18.9747   -1.6050    3.5119 H   0  0  0  0  0  0  0  0  0  0  0  0
   15.5136   -0.5231    4.9812 H   0  0  0  0  0  0  0  0  0  0  0  0
   13.9141   -0.5575    5.6228 H   0  0  0  0  0  0  0  0  0  0  0  0
   14.9293    0.7924    6.0594 H   0  0  0  0  0  0  0  0  0  0  0  0
   12.5372    1.1956    5.2340 H   0  0  0  0  0  0  0  0  0  0  0  0
   12.4772    2.5795    2.5658 H   0  0  0  0  0  0  0  0  0  0  0  0
   12.7510    3.2200    4.1544 H   0  0  0  0  0  0  0  0  0  0  0  0
   10.1779    1.8061    3.2503 H   0  0  0  0  0  0  0  0  0  0  0  0
   10.8236    3.4501    5.7513 H   0  0  0  0  0  0  0  0  0  0  0  0
   10.4321    1.7279    5.7005 H   0  0  0  0  0  0  0  0  0  0  0  0
    9.1998    2.9061    5.2718 H   0  0  0  0  0  0  0  0  0  0  0  0
   10.9158    4.7628    3.3678 H   0  0  0  0  0  0  0  0  0  0  0  0
    9.2821    4.1227    3.0612 H   0  0  0  0  0  0  0  0  0  0  0  0
   10.5959    3.7947    1.9212 H   0  0  0  0  0  0  0  0  0  0  0  0
   12.1568    0.9482    1.3571 H   0  0  0  0  0  0  0  0  0  0  0  0
   10.5351    0.2722    1.3516 H   0  0  0  0  0  0  0  0  0  0  0  0
   11.8586   -0.5500    0.4780 H   0  0  0  0  0  0  0  0  0  0  0  0
   12.1924   -2.4839    1.6012 H   0  0  0  0  0  0  0  0  0  0  0  0
   11.5890   -2.8282    4.6184 H   0  0  0  0  0  0  0  0  0  0  0  0
   12.4403   -5.0748    2.7659 H   0  0  0  0  0  0  0  0  0  0  0  0
   11.1798   -5.0895    3.9587 H   0  0  0  0  0  0  0  0  0  0  0  0
   12.8024   -5.0392    4.4797 H   0  0  0  0  0  0  0  0  0  0  0  0
   13.9614   -2.8402    2.8155 H   0  0  0  0  0  0  0  0  0  0  0  0
   14.0841   -3.2045    4.6145 H   0  0  0  0  0  0  0  0  0  0  0  0
   13.7299   -1.6289    3.9559 H   0  0  0  0  0  0  0  0  0  0  0  0
    9.2982   -4.8586    3.7918 H   0  0  0  0  0  0  0  0  0  0  0  0
    8.6369   -5.5271    2.3077 H   0  0  0  0  0  0  0  0  0  0  0  0
    8.1909   -3.8921    2.8960 H   0  0  0  0  0  0  0  0  0  0  0  0
  1  2  1  0  0  0  0
  1 96  1  0  0  0  0
  1 97  1  0  0  0  0
  1 98  1  0  0  0  0
  2  3  2  0  0  0  0
  2 99  1  0  0  0  0
  3  4  1  0  0  0  0
  3100  1  0  0  0  0
  4  5  1  0  0  0  0
  4101  1  0  0  0  0
  4102  1  0  0  0  0
  5  6  1  0  0  0  0
  5  7  1  0  0  0  0
  5103  1  6  0  0  0
  6104  1  0  0  0  0
  6105  1  0  0  0  0
  6106  1  0  0  0  0
  7  8  1  0  0  0  0
  7  9  1  0  0  0  0
  7107  1  1  0  0  0
  8108  1  0  0  0  0
  9 10  1  0  0  0  0
  9 94  1  0  0  0  0
  9109  1  1  0  0  0
 10 11  2  0  0  0  0
 10 12  1  0  0  0  0
 12 13  1  0  0  0  0
 12110  1  0  0  0  0
 13 14  1  0  0  0  0
 13 16  1  0  0  0  0
 13111  1  6  0  0  0
 14 15  1  0  0  0  0
 14112  1  0  0  0  0
 14113  1  0  0  0  0
 15114  1  0  0  0  0
 15115  1  0  0  0  0
 15116  1  0  0  0  0
 16 17  2  0  0  0  0
 16 18  1  0  0  0  0
 18 19  1  0  0  0  0
 18 20  1  0  0  0  0
 19117  1  0  0  0  0
 19118  1  0  0  0  0
 19119  1  0  0  0  0
 20 22  1  0  0  0  0
 20 21  1  0  0  0  0
 20120  1  6  0  0  0
 21121  1  0  0  0  0
 21122  1  0  0  0  0
 21123  1  0  0  0  0
 22 23  2  0  0  0  0
 22 24  1  0  0  0  0
 24 25  1  0  0  0  0
 24 26  1  0  0  0  0
 25124  1  0  0  0  0
 25125  1  0  0  0  0
 25126  1  0  0  0  0
 26 27  1  0  0  0  0
 26 40  1  0  0  0  0
 26127  1  6  0  0  0
 27 28  1  0  0  0  0
 27 29  1  0  0  0  0
 27128  1  1  0  0  0
 28129  1  0  0  0  0
 28130  1  0  0  0  0
 28131  1  0  0  0  0
 29 30  1  0  0  0  0
 29132  1  0  0  0  0
 29133  1  0  0  0  0
 30 31  1  0  0  0  0
 30 39  1  0  0  0  0
 31 32  1  0  0  0  0
 31134  1  0  0  0  0
 31135  1  0  0  0  0
 32 33  1  0  0  0  0
 32136  1  0  0  0  0
 32137  1  0  0  0  0
 33 34  1  0  0  0  0
 33 38  1  0  0  0  0
 34 35  1  0  0  0  0
 34138  1  0  0  0  0
 34139  1  0  0  0  0
 35 36  1  0  0  0  0
 35140  1  0  0  0  0
 35141  1  0  0  0  0
 36 37  1  0  0  0  0
 37142  1  0  0  0  0
 37143  1  0  0  0  0
 37144  1  0  0  0  0
 38 39  1  0  0  0  0
 38145  1  0  0  0  0
 38146  1  0  0  0  0
 39147  1  0  0  0  0
 39148  1  0  0  0  0
 40 41  2  0  0  0  0
 40 42  1  0  0  0  0
 42 43  1  0  0  0  0
 42149  1  0  0  0  0
 43 44  1  0  0  0  0
 43 47  1  0  0  0  0
 43150  1  1  0  0  0
 44 45  1  0  0  0  0
 44 46  1  0  0  0  0
 44151  1  0  0  0  0
 45152  1  0  0  0  0
 45153  1  0  0  0  0
 45154  1  0  0  0  0
 46155  1  0  0  0  0
 46156  1  0  0  0  0
 46157  1  0  0  0  0
 47 48  2  0  0  0  0
 47 49  1  0  0  0  0
 49 50  1  0  0  0  0
 49 51  1  0  0  0  0
 50158  1  0  0  0  0
 50159  1  0  0  0  0
 50160  1  0  0  0  0
 51 52  1  0  0  0  0
 51 56  1  0  0  0  0
 51161  1  1  0  0  0
 52 53  1  0  0  0  0
 52162  1  0  0  0  0
 52163  1  0  0  0  0
 53 54  1  0  0  0  0
 53 55  1  0  0  0  0
 53164  1  0  0  0  0
 54165  1  0  0  0  0
 54166  1  0  0  0  0
 54167  1  0  0  0  0
 55168  1  0  0  0  0
 55169  1  0  0  0  0
 55170  1  0  0  0  0
 56 57  2  0  0  0  0
 56 58  1  0  0  0  0
 58 59  1  0  0  0  0
 58171  1  0  0  0  0
 59 60  1  0  0  0  0
 59 61  1  0  0  0  0
 59172  1  6  0  0  0
 60173  1  0  0  0  0
 60174  1  0  0  0  0
 60175  1  0  0  0  0
 61 62  2  0  0  0  0
 61 63  1  0  0  0  0
 63 64  1  0  0  0  0
 63176  1  0  0  0  0
 64 66  1  0  0  0  0
 64 65  1  0  0  0  0
 64177  1  6  0  0  0
 65178  1  0  0  0  0
 65179  1  0  0  0  0
 65180  1  0  0  0  0
 66 67  2  0  0  0  0
 66 68  1  0  0  0  0
 68 69  1  0  0  0  0
 68 70  1  0  0  0  0
 69181  1  0  0  0  0
 69182  1  0  0  0  0
 69183  1  0  0  0  0
 70 71  1  0  0  0  0
 70 75  1  0  0  0  0
 70184  1  6  0  0  0
 71 72  1  0  0  0  0
 71185  1  0  0  0  0
 71186  1  0  0  0  0
 72 73  1  0  0  0  0
 72 74  1  0  0  0  0
 72187  1  0  0  0  0
 73188  1  0  0  0  0
 73189  1  0  0  0  0
 73190  1  0  0  0  0
 74191  1  0  0  0  0
 74192  1  0  0  0  0
 74193  1  0  0  0  0
 75 76  2  0  0  0  0
 75 77  1  0  0  0  0
 77 78  1  0  0  0  0
 77 79  1  0  0  0  0
 78194  1  0  0  0  0
 78195  1  0  0  0  0
 78196  1  0  0  0  0
 79 80  1  0  0  0  0
 79 84  1  0  0  0  0
 79197  1  1  0  0  0
 80 81  1  0  0  0  0
 80198  1  0  0  0  0
 80199  1  0  0  0  0
 81 82  1  0  0  0  0
 81 83  1  0  0  0  0
 81200  1  0  0  0  0
 82201  1  0  0  0  0
 82202  1  0  0  0  0
 82203  1  0  0  0  0
 83204  1  0  0  0  0
 83205  1  0  0  0  0
 83206  1  0  0  0  0
 84 85  2  0  0  0  0
 84 86  1  0  0  0  0
 86 87  1  0  0  0  0
 86 88  1  0  0  0  0
 87207  1  0  0  0  0
 87208  1  0  0  0  0
 87209  1  0  0  0  0
 88 89  1  0  0  0  0
 88 92  1  0  0  0  0
 88210  1  6  0  0  0
 89 90  1  0  0  0  0
 89 91  1  0  0  0  0
 89211  1  0  0  0  0
 90212  1  0  0  0  0
 90213  1  0  0  0  0
 90214  1  0  0  0  0
 91215  1  0  0  0  0
 91216  1  0  0  0  0
 91217  1  0  0  0  0
 92 93  2  0  0  0  0
 92 94  1  0  0  0  0
 94 95  1  0  0  0  0
 95218  1  0  0  0  0
 95219  1  0  0  0  0
 95220  1  0  0  0  0
M  END
>  <Energy>
993.413

$$$$