137638514
  -OEChem-03242010103D

 73 77  0     1  0  0  0  0  0999 V2000
    5.6634   -1.0834    0.7233 O   0  0  0  0  0  0  0  0  0  0  0  0
    4.6591   -3.0118   -1.0059 O   0  0  0  0  0  0  0  0  0  0  0  0
   -3.6338    0.4573   -0.9284 O   0  0  0  0  0  0  0  0  0  0  0  0
   -1.9486   -2.8953   -0.6273 O   0  0  0  0  0  0  0  0  0  0  0  0
    1.2304    0.6551    3.9908 O   0  0  0  0  0  0  0  0  0  0  0  0
    1.2550    2.3760   -1.7338 N   0  0  1  0  0  0  0  0  0  0  0  0
   -0.8698    3.5312   -0.0600 N   0  0  0  0  0  0  0  0  0  0  0  0
   -1.1014    3.3340    1.2480 N   0  0  0  0  0  0  0  0  0  0  0  0
   -2.2216    2.6270    1.3480 N   0  0  0  0  0  0  0  0  0  0  0  0
   -2.0555   -1.1940    0.9852 N   0  0  0  0  0  0  0  0  0  0  0  0
    1.2800    1.7244   -3.0490 C   0  0  0  0  0  0  0  0  0  0  0  0
    2.5736    2.2650   -1.0856 C   0  0  0  0  0  0  0  0  0  0  0  0
    1.4841    0.2155   -2.8787 C   0  0  0  0  0  0  0  0  0  0  0  0
    3.1051    0.8504   -1.0491 C   0  0  0  0  0  0  0  0  0  0  0  0
    2.6134   -0.1197   -1.9394 C   0  0  0  0  0  0  0  0  0  0  0  0
    0.8650    3.7801   -1.8573 C   0  0  0  0  0  0  0  0  0  0  0  0
    0.3411    4.3032   -0.5204 C   0  0  0  0  0  0  0  0  0  0  0  0
    4.1406    0.5155   -0.1660 C   0  0  0  0  0  0  0  0  0  0  0  0
    3.1377   -1.4184   -1.9082 C   0  0  0  0  0  0  0  0  0  0  0  0
    4.6625   -0.7777   -0.1489 C   0  0  0  0  0  0  0  0  0  0  0  0
    4.1601   -1.7441   -1.0173 C   0  0  0  0  0  0  0  0  0  0  0  0
   -1.8325    2.9575   -0.8321 C   0  0  0  0  0  0  0  0  0  0  0  0
   -2.6820    2.3881    0.0829 C   0  0  0  0  0  0  0  0  0  0  0  0
   -3.9138    1.6227   -0.1483 C   0  0  0  0  0  0  0  0  0  0  0  0
    6.1204   -0.0367    1.5776 C   0  0  0  0  0  0  0  0  0  0  0  0
    4.0896   -3.9405   -1.9265 C   0  0  0  0  0  0  0  0  0  0  0  0
   -4.4764   -0.6055   -0.7596 C   0  0  0  0  0  0  0  0  0  0  0  0
   -3.9958   -1.8361   -0.3124 C   0  0  0  0  0  0  0  0  0  0  0  0
   -5.8338   -0.4467   -1.0388 C   0  0  0  0  0  0  0  0  0  0  0  0
   -4.8723   -2.9079   -0.1441 C   0  0  0  0  0  0  0  0  0  0  0  0
   -2.5826   -2.0229   -0.0138 C   0  0  0  0  0  0  0  0  0  0  0  0
   -6.7106   -1.5186   -0.8705 C   0  0  0  0  0  0  0  0  0  0  0  0
   -6.2298   -2.7491   -0.4232 C   0  0  0  0  0  0  0  0  0  0  0  0
   -0.7359   -1.1649    1.4996 C   0  0  0  0  0  0  0  0  0  0  0  0
   -0.3985   -0.2581    2.5043 C   0  0  0  0  0  0  0  0  0  0  0  0
    0.2262   -2.0434    1.0009 C   0  0  0  0  0  0  0  0  0  0  0  0
    0.9009   -0.2297    3.0105 C   0  0  0  0  0  0  0  0  0  0  0  0
    1.5256   -2.0148    1.5072 C   0  0  0  0  0  0  0  0  0  0  0  0
    1.8629   -1.1080    2.5120 C   0  0  0  0  0  0  0  0  0  0  0  0
    0.1981    1.5243    4.4545 C   0  0  0  0  0  0  0  0  0  0  0  0
    2.0736    2.1485   -3.6789 H   0  0  0  0  0  0  0  0  0  0  0  0
    0.3304    1.8750   -3.5772 H   0  0  0  0  0  0  0  0  0  0  0  0
    2.4982    2.6152   -0.0501 H   0  0  0  0  0  0  0  0  0  0  0  0
    3.3190    2.8850   -1.6017 H   0  0  0  0  0  0  0  0  0  0  0  0
    1.6740   -0.2278   -3.8634 H   0  0  0  0  0  0  0  0  0  0  0  0
    0.5658   -0.2345   -2.4796 H   0  0  0  0  0  0  0  0  0  0  0  0
    0.0795    3.9032   -2.6132 H   0  0  0  0  0  0  0  0  0  0  0  0
    1.7016    4.4032   -2.1989 H   0  0  0  0  0  0  0  0  0  0  0  0
   -0.0103    5.3367   -0.6121 H   0  0  0  0  0  0  0  0  0  0  0  0
    1.0722    4.2466    0.2915 H   0  0  0  0  0  0  0  0  0  0  0  0
    4.4949    1.3103    0.4822 H   0  0  0  0  0  0  0  0  0  0  0  0
    2.7023   -2.1290   -2.6032 H   0  0  0  0  0  0  0  0  0  0  0  0
   -1.8509    3.0001   -1.9113 H   0  0  0  0  0  0  0  0  0  0  0  0
   -4.3604    1.3430    0.8149 H   0  0  0  0  0  0  0  0  0  0  0  0
   -4.6354    2.2448   -0.6905 H   0  0  0  0  0  0  0  0  0  0  0  0
    6.9147   -0.4563    2.2038 H   0  0  0  0  0  0  0  0  0  0  0  0
    5.3306    0.3057    2.2550 H   0  0  0  0  0  0  0  0  0  0  0  0
    6.5671    0.7846    1.0069 H   0  0  0  0  0  0  0  0  0  0  0  0
    4.6056   -4.8953   -1.7808 H   0  0  0  0  0  0  0  0  0  0  0  0
    4.2659   -3.6400   -2.9649 H   0  0  0  0  0  0  0  0  0  0  0  0
    3.0293   -4.1179   -1.7165 H   0  0  0  0  0  0  0  0  0  0  0  0
   -6.2226    0.5026   -1.3967 H   0  0  0  0  0  0  0  0  0  0  0  0
   -4.5118   -3.8718    0.2060 H   0  0  0  0  0  0  0  0  0  0  0  0
   -7.7672   -1.3956   -1.0896 H   0  0  0  0  0  0  0  0  0  0  0  0
   -6.9125   -3.5836   -0.2921 H   0  0  0  0  0  0  0  0  0  0  0  0
   -2.6939   -0.5278    1.4148 H   0  0  0  0  0  0  0  0  0  0  0  0
   -1.1857    0.3987    2.8591 H   0  0  0  0  0  0  0  0  0  0  0  0
    0.0422   -2.7740    0.2262 H   0  0  0  0  0  0  0  0  0  0  0  0
    2.2707   -2.7084    1.1302 H   0  0  0  0  0  0  0  0  0  0  0  0
    2.8761   -1.0926    2.9042 H   0  0  0  0  0  0  0  0  0  0  0  0
   -0.1483    2.1954    3.6634 H   0  0  0  0  0  0  0  0  0  0  0  0
    0.6345    2.1539    5.2370 H   0  0  0  0  0  0  0  0  0  0  0  0
   -0.6228    0.9657    4.9168 H   0  0  0  0  0  0  0  0  0  0  0  0
  1 20  1  0  0  0  0
  1 25  1  0  0  0  0
  2 21  1  0  0  0  0
  2 26  1  0  0  0  0
  3 24  1  0  0  0  0
  3 27  1  0  0  0  0
  4 31  2  0  0  0  0
  5 37  1  0  0  0  0
  5 40  1  0  0  0  0
  6 11  1  0  0  0  0
  6 12  1  0  0  0  0
  6 16  1  0  0  0  0
  7  8  1  0  0  0  0
  7 17  1  0  0  0  0
  7 22  1  0  0  0  0
  8  9  2  0  0  0  0
  9 23  1  0  0  0  0
 10 31  1  0  0  0  0
 10 34  1  0  0  0  0
 10 66  1  0  0  0  0
 11 13  1  0  0  0  0
 11 41  1  0  0  0  0
 11 42  1  0  0  0  0
 12 14  1  0  0  0  0
 12 43  1  0  0  0  0
 12 44  1  0  0  0  0
 13 15  1  0  0  0  0
 13 45  1  0  0  0  0
 13 46  1  0  0  0  0
 14 15  1  0  0  0  0
 14 18  2  0  0  0  0
 15 19  2  0  0  0  0
 16 17  1  0  0  0  0
 16 47  1  0  0  0  0
 16 48  1  0  0  0  0
 17 49  1  0  0  0  0
 17 50  1  0  0  0  0
 18 20  1  0  0  0  0
 18 51  1  0  0  0  0
 19 21  1  0  0  0  0
 19 52  1  0  0  0  0
 20 21  2  0  0  0  0
 22 23  2  0  0  0  0
 22 53  1  0  0  0  0
 23 24  1  0  0  0  0
 24 54  1  0  0  0  0
 24 55  1  0  0  0  0
 25 56  1  0  0  0  0
 25 57  1  0  0  0  0
 25 58  1  0  0  0  0
 26 59  1  0  0  0  0
 26 60  1  0  0  0  0
 26 61  1  0  0  0  0
 27 28  1  0  0  0  0
 27 29  2  0  0  0  0
 28 30  2  0  0  0  0
 28 31  1  0  0  0  0
 29 32  1  0  0  0  0
 29 62  1  0  0  0  0
 30 33  1  0  0  0  0
 30 63  1  0  0  0  0
 32 33  2  0  0  0  0
 32 64  1  0  0  0  0
 33 65  1  0  0  0  0
 34 35  2  0  0  0  0
 34 36  1  0  0  0  0
 35 37  1  0  0  0  0
 35 67  1  0  0  0  0
 36 38  2  0  0  0  0
 36 68  1  0  0  0  0
 37 39  2  0  0  0  0
 38 39  1  0  0  0  0
 38 69  1  0  0  0  0
 39 70  1  0  0  0  0
 40 71  1  0  0  0  0
 40 72  1  0  0  0  0
 40 73  1  0  0  0  0
M  END
> <PUBCHEM_COMPOUND_CID>
137638514

> <PUBCHEM_CONFORMER_RMSD>
1.4

> <PUBCHEM_CONFORMER_DIVERSEORDER>
15
153
97
183
194
18
125
23
199
61
91
8
219
144
84
83
210
173
9
232
163
116
76
234
80
143
60
162
168
205
127
157
7
35
190
134
206
2
128
165
50
16
175
149
223
78
63
213
179
109
12
132
227
72
54
123
1
192
124
138
21
135
100
208
169
217
191
148
121
11
193
113
230
27
177
89
231
62
86
58
119
189
39
156
56
75
20
95
196
45
220
53
180
120
79
166
131
151
94
195
182
152
160
74
40
225
42
51
176
171
103
186
10
136
150
172
99
3
64
38
155
44
87
215
71
201
47
32
105
67
115
31
122
114
106
167
14
204
107
69
34
88
41
145
28
218
77
185
68
170
130
66
200
159
126
57
26
90
161
112
29
207
228
17
133
81
101
188
209
46
110
73
197
22
49
111
224
141
104
137
4
5
142
233
158
55
13
140
147
198
187
37
96
214
184
203
211
82
48
93
102
70
52
19
36
154
202
146
118
92
174
59
221
229
222
6
129
24
25
178
164
181
139
108
30
226
212
33
98
65
43
117
216
85

> <PUBCHEM_MMFF94_PARTIAL_CHARGES>
52
1 -0.36
10 -0.55
11 0.27
12 0.41
13 0.14
14 -0.14
15 -0.14
16 0.27
17 0.26
18 -0.15
19 -0.15
2 -0.36
20 0.08
21 0.08
22 -0.3
23 0.05
24 0.46
25 0.28
26 0.28
27 0.08
28 0.09
29 -0.15
3 -0.36
30 -0.15
31 0.54
32 -0.15
33 -0.15
34 0.12
35 -0.15
36 -0.15
37 0.08
38 -0.15
39 -0.15
4 -0.57
40 0.28
5 -0.36
51 0.15
52 0.15
53 0.15
6 -0.81
62 0.15
63 0.15
64 0.15
65 0.15
66 0.37
67 0.15
68 0.15
69 0.15
7 0.31
70 0.15
8 -0.42
9 -0.23

> <PUBCHEM_EFFECTIVE_ROTOR_COUNT>
12.8

> <PUBCHEM_PHARMACOPHORE_FEATURES>
12
1 1 acceptor
1 10 donor
1 2 acceptor
1 3 acceptor
1 4 acceptor
1 5 acceptor
1 6 cation
5 7 8 9 22 23 rings
6 14 15 18 19 20 21 rings
6 27 28 29 30 32 33 rings
6 34 35 36 37 38 39 rings
6 6 11 12 13 14 15 rings

> <PUBCHEM_HEAVY_ATOM_COUNT>
40

> <PUBCHEM_ATOM_DEF_STEREO_COUNT>
0

> <PUBCHEM_ATOM_UDEF_STEREO_COUNT>
0

> <PUBCHEM_BOND_DEF_STEREO_COUNT>
0

> <PUBCHEM_BOND_UDEF_STEREO_COUNT>
0

> <PUBCHEM_ISOTOPIC_ATOM_COUNT>
0

> <PUBCHEM_COMPONENT_COUNT>
1

> <PUBCHEM_CACTVS_TAUTO_COUNT>
-1

> <PUBCHEM_CONFORMER_ID>
083432720000000F

> <PUBCHEM_MMFF94_ENERGY>
137.3413

> <PUBCHEM_FEATURE_SELFOVERLAP>
60.926

> <PUBCHEM_SHAPE_FINGERPRINT>
11285246 1 17968676980815179043
11828532 37 18118400872774284643
12156800 1 17608328503358648360
12166972 35 17749103430653128439
14068700 675 18261386767401870948
15001296 14 18259982661146471117
15297060 5 18269265760615854761
17909252 39 18341056318808273624
19315092 285 17846227660969776660
20764821 26 18118715208139153796
27425 322 16195392113587267528
3493558 16 18342174497044874568
35225 105 17622963999218974380
354706 35 17533518947516510324
463206 1 18114188505930514933
66674814 147 17312821580459801152

> <PUBCHEM_SHAPE_MULTIPOLES>
768.93
12.02
4.93
3.47
8.63
3.04
-3.47
-10.7
4.47
0.46
1.86
-2.96
0.74
-0.34

> <PUBCHEM_SHAPE_SELFOVERLAP>
1659.328

> <PUBCHEM_SHAPE_VOLUME>
422.9

> <PUBCHEM_COORDINATE_TYPE>
2
5
10

$$$$