72735407
  -OEChem-03242010103D

 47 50  0     0  0  0  0  0  0999 V2000
    3.7124   -2.3325    0.4520 O   0  0  0  0  0  0  0  0  0  0  0  0
    5.7693   -0.5804   -0.1987 O   0  0  0  0  0  0  0  0  0  0  0  0
   -1.7044   -4.1370    1.7690 O   0  0  0  0  0  0  0  0  0  0  0  0
   -2.7669   -0.1210   -0.6571 N   0  0  0  0  0  0  0  0  0  0  0  0
   -0.4714    0.3187   -0.3863 N   0  0  0  0  0  0  0  0  0  0  0  0
    0.2942    2.5180    0.2332 N   0  0  0  0  0  0  0  0  0  0  0  0
   -2.0541    2.1112   -0.0336 C   0  0  0  0  0  0  0  0  0  0  0  0
   -1.7301    0.7949   -0.3504 C   0  0  0  0  0  0  0  0  0  0  0  0
   -0.9750    2.9609    0.2598 C   0  0  0  0  0  0  0  0  0  0  0  0
    0.4771    1.2213   -0.0883 C   0  0  0  0  0  0  0  0  0  0  0  0
    1.8388    0.7547   -0.1150 C   0  0  0  0  0  0  0  0  0  0  0  0
   -3.3772    2.5851   -0.0028 C   0  0  0  0  0  0  0  0  0  0  0  0
   -1.2599    4.2857    0.5815 C   0  0  0  0  0  0  0  0  0  0  0  0
    2.1257   -0.5768    0.1859 C   0  0  0  0  0  0  0  0  0  0  0  0
   -2.8856   -1.5094   -0.4861 C   0  0  0  0  0  0  0  0  0  0  0  0
    2.8710    1.6338   -0.4426 C   0  0  0  0  0  0  0  0  0  0  0  0
    3.4450   -1.0293    0.1589 C   0  0  0  0  0  0  0  0  0  0  0  0
   -3.6328    3.9136    0.3220 C   0  0  0  0  0  0  0  0  0  0  0  0
    4.4772   -0.1501   -0.1686 C   0  0  0  0  0  0  0  0  0  0  0  0
   -2.5728    4.7647    0.6144 C   0  0  0  0  0  0  0  0  0  0  0  0
    4.1902    1.1813   -0.4693 C   0  0  0  0  0  0  0  0  0  0  0  0
   -2.2275   -2.1410    0.5692 C   0  0  0  0  0  0  0  0  0  0  0  0
   -3.6617   -2.2574   -1.3715 C   0  0  0  0  0  0  0  0  0  0  0  0
   -2.3456   -3.5204    0.7392 C   0  0  0  0  0  0  0  0  0  0  0  0
   -3.7796   -3.6369   -1.2018 C   0  0  0  0  0  0  0  0  0  0  0  0
   -3.1216   -4.2684   -0.1464 C   0  0  0  0  0  0  0  0  0  0  0  0
    2.6005   -3.1649    0.7766 C   0  0  0  0  0  0  0  0  0  0  0  0
    6.7647    0.3815   -0.5429 C   0  0  0  0  0  0  0  0  0  0  0  0
   -3.4593    0.2657   -1.2928 H   0  0  0  0  0  0  0  0  0  0  0  0
   -4.2280    1.9448   -0.2179 H   0  0  0  0  0  0  0  0  0  0  0  0
   -0.4479    4.9721    0.8144 H   0  0  0  0  0  0  0  0  0  0  0  0
    1.2971   -1.2254    0.4493 H   0  0  0  0  0  0  0  0  0  0  0  0
    2.6783    2.6746   -0.6919 H   0  0  0  0  0  0  0  0  0  0  0  0
   -4.6533    4.2833    0.3488 H   0  0  0  0  0  0  0  0  0  0  0  0
   -2.7637    5.8031    0.8693 H   0  0  0  0  0  0  0  0  0  0  0  0
    4.9399    1.9189   -0.7343 H   0  0  0  0  0  0  0  0  0  0  0  0
   -1.6304   -1.5671    1.2737 H   0  0  0  0  0  0  0  0  0  0  0  0
   -4.1793   -1.7783   -2.1987 H   0  0  0  0  0  0  0  0  0  0  0  0
   -4.3836   -4.2193   -1.8913 H   0  0  0  0  0  0  0  0  0  0  0  0
   -3.2174   -5.3432   -0.0192 H   0  0  0  0  0  0  0  0  0  0  0  0
    2.9965   -4.1658    0.9783 H   0  0  0  0  0  0  0  0  0  0  0  0
    1.9082   -3.2632   -0.0667 H   0  0  0  0  0  0  0  0  0  0  0  0
    2.1000   -2.8327    1.6926 H   0  0  0  0  0  0  0  0  0  0  0  0
    6.6300    0.7539   -1.5642 H   0  0  0  0  0  0  0  0  0  0  0  0
    6.8152    1.1912    0.1931 H   0  0  0  0  0  0  0  0  0  0  0  0
    7.7315   -0.1320   -0.5170 H   0  0  0  0  0  0  0  0  0  0  0  0
   -1.2093   -3.4714    2.2769 H   0  0  0  0  0  0  0  0  0  0  0  0
  1 17  1  0  0  0  0
  1 27  1  0  0  0  0
  2 19  1  0  0  0  0
  2 28  1  0  0  0  0
  3 24  1  0  0  0  0
  3 47  1  0  0  0  0
  4  8  1  0  0  0  0
  4 15  1  0  0  0  0
  4 29  1  0  0  0  0
  5  8  2  0  0  0  0
  5 10  1  0  0  0  0
  6  9  1  0  0  0  0
  6 10  2  0  0  0  0
  7  8  1  0  0  0  0
  7  9  1  0  0  0  0
  7 12  2  0  0  0  0
  9 13  2  0  0  0  0
 10 11  1  0  0  0  0
 11 14  2  0  0  0  0
 11 16  1  0  0  0  0
 12 18  1  0  0  0  0
 12 30  1  0  0  0  0
 13 20  1  0  0  0  0
 13 31  1  0  0  0  0
 14 17  1  0  0  0  0
 14 32  1  0  0  0  0
 15 22  2  0  0  0  0
 15 23  1  0  0  0  0
 16 21  2  0  0  0  0
 16 33  1  0  0  0  0
 17 19  2  0  0  0  0
 18 20  2  0  0  0  0
 18 34  1  0  0  0  0
 19 21  1  0  0  0  0
 20 35  1  0  0  0  0
 21 36  1  0  0  0  0
 22 24  1  0  0  0  0
 22 37  1  0  0  0  0
 23 25  2  0  0  0  0
 23 38  1  0  0  0  0
 24 26  2  0  0  0  0
 25 26  1  0  0  0  0
 25 39  1  0  0  0  0
 26 40  1  0  0  0  0
 27 41  1  0  0  0  0
 27 42  1  0  0  0  0
 27 43  1  0  0  0  0
 28 44  1  0  0  0  0
 28 45  1  0  0  0  0
 28 46  1  0  0  0  0
M  END
> <PUBCHEM_COMPOUND_CID>
72735407

> <PUBCHEM_CONFORMER_RMSD>
0.8

> <PUBCHEM_CONFORMER_DIVERSEORDER>
1
86
17
38
39
14
44
28
62
7
76
47
30
63
19
40
64
15
9
60
32
84
41
23
5
65
4
58
25
11
45
61
33
27
50
87
70
16
69
48
34
29
72
42
43
12
36
8
53
67
22
57
31
2
73
71
26
49
35
37
56
75
6
81
68
78
3
10
85
51
24
20
74
77
59
55
66
82
46
52
21
80
79
13
54
18
83

> <PUBCHEM_MMFF94_PARTIAL_CHARGES>
39
1 -0.36
10 0.62
12 -0.15
13 -0.15
14 -0.15
15 0.1
16 -0.15
17 0.08
18 -0.15
19 0.08
2 -0.36
20 -0.15
21 -0.15
22 -0.15
23 -0.15
24 0.08
25 -0.15
26 -0.15
27 0.28
28 0.28
29 0.4
3 -0.53
30 0.15
31 0.15
32 0.15
33 0.15
34 0.15
35 0.15
36 0.15
37 0.15
38 0.15
39 0.15
4 -0.6
40 0.15
47 0.45
5 -0.62
6 -0.62
8 0.41
9 0.31

> <PUBCHEM_EFFECTIVE_ROTOR_COUNT>
5

> <PUBCHEM_PHARMACOPHORE_FEATURES>
10
1 1 acceptor
1 2 acceptor
1 3 donor
1 4 donor
3 4 5 8 cation
3 5 6 10 cation
6 11 14 16 17 19 21 rings
6 15 22 23 24 25 26 rings
6 5 6 7 8 9 10 rings
6 7 9 12 13 18 20 rings

> <PUBCHEM_HEAVY_ATOM_COUNT>
28

> <PUBCHEM_ATOM_DEF_STEREO_COUNT>
0

> <PUBCHEM_ATOM_UDEF_STEREO_COUNT>
0

> <PUBCHEM_BOND_DEF_STEREO_COUNT>
0

> <PUBCHEM_BOND_UDEF_STEREO_COUNT>
0

> <PUBCHEM_ISOTOPIC_ATOM_COUNT>
0

> <PUBCHEM_COMPONENT_COUNT>
1

> <PUBCHEM_CACTVS_TAUTO_COUNT>
17

> <PUBCHEM_CONFORMER_ID>
0455DAAF00000001

> <PUBCHEM_MMFF94_ENERGY>
117.929

> <PUBCHEM_FEATURE_SELFOVERLAP>
50.923

> <PUBCHEM_SHAPE_FINGERPRINT>
10411042 1 18196653123364028023
10616163 171 18412262822506952926
10940486 97 18263370179520817140
1100329 8 17977099055158450370
11056379 131 18341059549066915724
11227688 84 17691967476451537678
114674 6 17471001957591156939
12553582 1 18265329684887026707
12788726 201 18409157810265407387
13140716 1 18268153239210742697
13631057 29 18411697729612406870
138480 1 16322032613259932165
13911987 19 17179979934238685884
14068700 686 18272083968148405112
14251757 5 18408600388034687399
14363568 33 17326630587374247155
14659021 117 18337382837791419384
14790565 3 17834960771698573232
14844126 61 18409169900461026921
14866123 147 18411983559828627291
14931854 50 18187632643881160150
15042514 8 18412831295952009413
15250474 111 18335692794431627522
15351339 4 18116971387499247059
15400415 2 18050849919089887472
15463212 79 18190737535810347504
15927050 60 18124878954508158991
15950262 2 15475572701600635642
15968369 26 17255101871519708317
16087824 20 18412545380781071965
16628084 112 18192138314441558535
17859628 97 17760929541482493731
19427546 20 18410017645749466956
20028762 73 17693928601737192877
20101258 96 18268998746472314977
21120745 212 18267602362262879557
21133410 171 17545824621494576518
21133410 32 16011009859339101706
21796203 349 17614595912752199346
23558518 356 18336267860107794318
23559900 14 17834664277896383743
4017518 198 17551222974499641278
4073 2 18339928122259901318
4616759 239 18058997403593973000
463206 1 18048314745243549286
5309563 4 18124031492683006607
5385378 56 17117764644596826593
6004065 56 17547836908034659455
613672 6 18052233379099261747
653340 110 18340475734325991762
6673363 416 18053399953513027868
9981440 41 17978516334674653009

> <PUBCHEM_SHAPE_MULTIPOLES>
543.68
10.34
7.09
0.97
17.49
0.89
0.05
-3.5
-2.11
-11.21
1.88
-0.56
-0.77
-1.49

> <PUBCHEM_SHAPE_SELFOVERLAP>
1206.135

> <PUBCHEM_SHAPE_VOLUME>
290.4

> <PUBCHEM_COORDINATE_TYPE>
2
5
10

$$$$