102340685
  -OEChem-03242010103D

 47 49  0     0  0  0  0  0  0999 V2000
    1.3866    2.3084    0.8654 F   0  0  0  0  0  0  0  0  0  0  0  0
   -5.6885   -2.1597    0.3764 O   0  0  0  0  0  0  0  0  0  0  0  0
   -4.6101    2.4618   -0.2703 O   0  0  0  0  0  0  0  0  0  0  0  0
   -6.4949    0.4833    0.1802 O   0  0  0  0  0  0  0  0  0  0  0  0
   -0.7669   -1.9926   -0.7225 O   0  0  0  0  0  0  0  0  0  0  0  0
   -0.1384    0.1462    0.0257 N   0  0  0  0  0  0  0  0  0  0  0  0
    7.5168   -0.9650   -0.9595 N   0  0  0  0  0  0  0  0  0  0  0  0
   -2.4795   -0.5074   -0.2002 C   0  0  0  0  0  0  0  0  0  0  0  0
    1.2558    0.0905    0.0247 C   0  0  0  0  0  0  0  0  0  0  0  0
    4.0431   -0.0252    0.0211 C   0  0  0  0  0  0  0  0  0  0  0  0
   -2.8818    0.8246   -0.2997 C   0  0  0  0  0  0  0  0  0  0  0  0
   -3.4257   -1.5067    0.0270 C   0  0  0  0  0  0  0  0  0  0  0  0
   -4.7744   -1.1741    0.1545 C   0  0  0  0  0  0  0  0  0  0  0  0
   -4.2304    1.1571   -0.1721 C   0  0  0  0  0  0  0  0  0  0  0  0
   -5.1767    0.1578    0.0548 C   0  0  0  0  0  0  0  0  0  0  0  0
   -1.0423   -0.8620   -0.3350 C   0  0  0  0  0  0  0  0  0  0  0  0
    2.0000    1.1904    0.4511 C   0  0  0  0  0  0  0  0  0  0  0  0
    1.9052   -1.0674   -0.4034 C   0  0  0  0  0  0  0  0  0  0  0  0
    3.3937    1.1325    0.4494 C   0  0  0  0  0  0  0  0  0  0  0  0
    3.2988   -1.1252   -0.4053 C   0  0  0  0  0  0  0  0  0  0  0  0
    5.4885   -0.0850    0.0182 C   0  0  0  0  0  0  0  0  0  0  0  0
    6.2377    0.6387    0.9394 C   0  0  0  0  0  0  0  0  0  0  0  0
    6.1698   -0.8648   -0.9023 C   0  0  0  0  0  0  0  0  0  0  0  0
    7.6257    0.5615    0.9121 C   0  0  0  0  0  0  0  0  0  0  0  0
   -7.2738    0.4974   -1.0139 C   0  0  0  0  0  0  0  0  0  0  0  0
   -5.9697   -2.4882    1.7356 C   0  0  0  0  0  0  0  0  0  0  0  0
   -3.5800    3.4205   -0.5030 C   0  0  0  0  0  0  0  0  0  0  0  0
    8.2115   -0.2474   -0.0484 C   0  0  0  0  0  0  0  0  0  0  0  0
   -2.1348    1.5734   -0.5282 H   0  0  0  0  0  0  0  0  0  0  0  0
   -3.1256   -2.5484    0.1113 H   0  0  0  0  0  0  0  0  0  0  0  0
   -0.5077    1.0190    0.3917 H   0  0  0  0  0  0  0  0  0  0  0  0
    1.4008   -1.9594   -0.7468 H   0  0  0  0  0  0  0  0  0  0  0  0
    3.9328    2.0214    0.7651 H   0  0  0  0  0  0  0  0  0  0  0  0
    3.7636   -2.0551   -0.7221 H   0  0  0  0  0  0  0  0  0  0  0  0
    5.7811    1.2523    1.7108 H   0  0  0  0  0  0  0  0  0  0  0  0
    5.6689   -1.4402   -1.6745 H   0  0  0  0  0  0  0  0  0  0  0  0
    8.2302    1.1116    1.6241 H   0  0  0  0  0  0  0  0  0  0  0  0
   -8.2982    0.7751   -0.7512 H   0  0  0  0  0  0  0  0  0  0  0  0
   -7.2883   -0.4946   -1.4763 H   0  0  0  0  0  0  0  0  0  0  0  0
   -6.8820    1.2354   -1.7211 H   0  0  0  0  0  0  0  0  0  0  0  0
   -6.7207   -3.2828    1.7476 H   0  0  0  0  0  0  0  0  0  0  0  0
   -5.0671   -2.8517    2.2368 H   0  0  0  0  0  0  0  0  0  0  0  0
   -6.3710   -1.6195    2.2672 H   0  0  0  0  0  0  0  0  0  0  0  0
   -2.8599    3.4514    0.3220 H   0  0  0  0  0  0  0  0  0  0  0  0
   -3.0992    3.2690   -1.4755 H   0  0  0  0  0  0  0  0  0  0  0  0
   -4.0600    4.4042   -0.5390 H   0  0  0  0  0  0  0  0  0  0  0  0
    9.2905   -0.3432   -0.1106 H   0  0  0  0  0  0  0  0  0  0  0  0
  1 17  1  0  0  0  0
  2 13  1  0  0  0  0
  2 26  1  0  0  0  0
  3 14  1  0  0  0  0
  3 27  1  0  0  0  0
  4 15  1  0  0  0  0
  4 25  1  0  0  0  0
  5 16  2  0  0  0  0
  6  9  1  0  0  0  0
  6 16  1  0  0  0  0
  6 31  1  0  0  0  0
  7 23  1  0  0  0  0
  7 28  2  0  0  0  0
  8 11  2  0  0  0  0
  8 12  1  0  0  0  0
  8 16  1  0  0  0  0
  9 17  2  0  0  0  0
  9 18  1  0  0  0  0
 10 19  2  0  0  0  0
 10 20  1  0  0  0  0
 10 21  1  0  0  0  0
 11 14  1  0  0  0  0
 11 29  1  0  0  0  0
 12 13  2  0  0  0  0
 12 30  1  0  0  0  0
 13 15  1  0  0  0  0
 14 15  2  0  0  0  0
 17 19  1  0  0  0  0
 18 20  2  0  0  0  0
 18 32  1  0  0  0  0
 19 33  1  0  0  0  0
 20 34  1  0  0  0  0
 21 22  1  0  0  0  0
 21 23  2  0  0  0  0
 22 24  2  0  0  0  0
 22 35  1  0  0  0  0
 23 36  1  0  0  0  0
 24 28  1  0  0  0  0
 24 37  1  0  0  0  0
 25 38  1  0  0  0  0
 25 39  1  0  0  0  0
 25 40  1  0  0  0  0
 26 41  1  0  0  0  0
 26 42  1  0  0  0  0
 26 43  1  0  0  0  0
 27 44  1  0  0  0  0
 27 45  1  0  0  0  0
 27 46  1  0  0  0  0
 28 47  1  0  0  0  0
M  END
> <PUBCHEM_COMPOUND_CID>
102340685

> <PUBCHEM_CONFORMER_RMSD>
0.8

> <PUBCHEM_CONFORMER_DIVERSEORDER>
1
8
25
26
9
7
24
21
19
3
5
20
18
16
15
22
29
13
10
4
28
17
23
6
14
27
11
12
2

> <PUBCHEM_MMFF94_PARTIAL_CHARGES>
36
1 -0.19
11 -0.15
12 -0.15
13 0.08
14 0.08
15 0.08
16 0.54
17 0.19
18 -0.15
19 -0.15
2 -0.36
20 -0.15
22 -0.15
23 0.16
24 -0.15
25 0.28
26 0.28
27 0.28
28 0.16
29 0.15
3 -0.36
30 0.15
31 0.37
32 0.15
33 0.15
34 0.15
35 0.15
36 0.15
37 0.15
4 -0.36
47 0.15
5 -0.57
6 -0.55
7 -0.62
8 0.09
9 0.12

> <PUBCHEM_EFFECTIVE_ROTOR_COUNT>
7

> <PUBCHEM_PHARMACOPHORE_FEATURES>
9
1 2 acceptor
1 3 acceptor
1 4 acceptor
1 5 acceptor
1 6 donor
1 7 acceptor
6 7 21 22 23 24 28 rings
6 8 11 12 13 14 15 rings
6 9 10 17 18 19 20 rings

> <PUBCHEM_HEAVY_ATOM_COUNT>
28

> <PUBCHEM_ATOM_DEF_STEREO_COUNT>
0

> <PUBCHEM_ATOM_UDEF_STEREO_COUNT>
0

> <PUBCHEM_BOND_DEF_STEREO_COUNT>
0

> <PUBCHEM_BOND_UDEF_STEREO_COUNT>
0

> <PUBCHEM_ISOTOPIC_ATOM_COUNT>
0

> <PUBCHEM_COMPONENT_COUNT>
1

> <PUBCHEM_CACTVS_TAUTO_COUNT>
5

> <PUBCHEM_CONFORMER_ID>
0619984D00000001

> <PUBCHEM_MMFF94_ENERGY>
121.9336

> <PUBCHEM_FEATURE_SELFOVERLAP>
45.683

> <PUBCHEM_SHAPE_FINGERPRINT>
10 15 18340762737083672952
100830 39 18410009901427449156
10299344 5 17240199941573564618
10319926 262 18337942467571532275
10411042 1 18191871348339464755
11315181 36 17967535683740470773
11578080 2 16952232233090170215
11646440 116 17846223280192604626
11719270 70 18202281382307073766
12166972 35 18334299803161673868
12236239 1 17385444349075275070
12516196 113 18060419123462513592
13073987 5 18335137557812247466
13533116 47 14117530801116456118
13685833 64 18343024415274886786
13885169 127 18408604738936791310
14251764 18 18260263027667924882
14251764 46 18343581841741966950
14856354 85 17167868577498334706
14933364 13 18413389839421446060
15183329 4 18409166589162320266
15419008 47 18202558480089890928
15849732 13 18059855078070801588
15927050 60 18412259545548224166
17844677 252 18335709376651491308
18608769 82 18410857698181130787
18927931 339 18409449211417850231
19611394 137 18115880770669087755
20281389 69 18411416194516963264
21033648 29 17988346126928220032
21267235 1 18341901809465411874
21279426 13 18199470974587801534
21315759 40 16950279616097290962
21792961 116 18201721709223210206
23559900 14 18409724089219175633
3004659 81 18407760348651513656
335352 9 18272650164801281172
3383291 50 18261956365701455554
350125 39 18411701010561674261
3545911 37 18272087188550483021
4073 2 18187930624986381722
5104073 3 18338801108854288307
59755656 215 18412544284229535526
59755656 520 17530679939510923667
6441014 3 16448719988149452243

> <PUBCHEM_SHAPE_MULTIPOLES>
535.51
23.25
2.37
0.96
18.97
1.07
0.15
-2.35
0.75
-4.6
0.23
-0.02
-0.24
2.46

> <PUBCHEM_SHAPE_SELFOVERLAP>
1164.715

> <PUBCHEM_SHAPE_VOLUME>
294.3

> <PUBCHEM_COORDINATE_TYPE>
2
5
10

$$$$