5476176
  -OEChem-03242010103D

 46 48  0     0  0  0  0  0  0999 V2000
   -6.0243    0.9488   -0.4287 O   0  0  0  0  0  0  0  0  0  0  0  0
   -5.6591   -1.7724   -0.7918 O   0  0  0  0  0  0  0  0  0  0  0  0
   -3.8702    2.5390    0.2800 O   0  0  0  0  0  0  0  0  0  0  0  0
    1.5567   -2.5748    0.6013 O   0  0  0  0  0  0  0  0  0  0  0  0
    5.1119   -0.4234   -0.2077 C   0  0  0  0  0  0  0  0  0  0  0  0
    5.1090    0.9384    0.1772 C   0  0  0  0  0  0  0  0  0  0  0  0
    2.7442   -0.5695    0.3321 C   0  0  0  0  0  0  0  0  0  0  0  0
    3.9211   -1.1633   -0.1247 C   0  0  0  0  0  0  0  0  0  0  0  0
   -2.2820   -0.7315    0.0841 C   0  0  0  0  0  0  0  0  0  0  0  0
    3.9151    1.5200    0.6344 C   0  0  0  0  0  0  0  0  0  0  0  0
    2.7414    0.7697    0.7108 C   0  0  0  0  0  0  0  0  0  0  0  0
    6.3055   -1.0052   -0.6653 C   0  0  0  0  0  0  0  0  0  0  0  0
   -4.7901    0.3947   -0.2593 C   0  0  0  0  0  0  0  0  0  0  0  0
   -4.6100   -0.9762   -0.4434 C   0  0  0  0  0  0  0  0  0  0  0  0
   -3.7076    1.1986    0.0976 C   0  0  0  0  0  0  0  0  0  0  0  0
    6.2998    1.6783    0.0941 C   0  0  0  0  0  0  0  0  0  0  0  0
   -3.3472   -1.5432   -0.2704 C   0  0  0  0  0  0  0  0  0  0  0  0
   -2.4449    0.6318    0.2704 C   0  0  0  0  0  0  0  0  0  0  0  0
    1.5196   -1.3495    0.4118 C   0  0  0  0  0  0  0  0  0  0  0  0
   -0.9482   -1.3304    0.2670 C   0  0  0  0  0  0  0  0  0  0  0  0
    0.2044   -0.6456    0.2283 C   0  0  0  0  0  0  0  0  0  0  0  0
    7.4795   -0.2552   -0.7414 C   0  0  0  0  0  0  0  0  0  0  0  0
    7.4767    1.0838   -0.3623 C   0  0  0  0  0  0  0  0  0  0  0  0
   -6.5959    1.6116    0.6968 C   0  0  0  0  0  0  0  0  0  0  0  0
   -6.4153   -2.3497    0.2706 C   0  0  0  0  0  0  0  0  0  0  0  0
   -3.6900    3.3749   -0.8613 C   0  0  0  0  0  0  0  0  0  0  0  0
    3.9197   -2.2100   -0.4251 H   0  0  0  0  0  0  0  0  0  0  0  0
    3.8920    2.5631    0.9431 H   0  0  0  0  0  0  0  0  0  0  0  0
    1.8582    1.2621    1.1066 H   0  0  0  0  0  0  0  0  0  0  0  0
    6.3314   -2.0503   -0.9668 H   0  0  0  0  0  0  0  0  0  0  0  0
   -3.2149   -2.6123   -0.4178 H   0  0  0  0  0  0  0  0  0  0  0  0
   -1.6325    1.2862    0.5719 H   0  0  0  0  0  0  0  0  0  0  0  0
    6.3208    2.7265    0.3849 H   0  0  0  0  0  0  0  0  0  0  0  0
   -0.9417   -2.4021    0.4510 H   0  0  0  0  0  0  0  0  0  0  0  0
    0.2279    0.4104   -0.0076 H   0  0  0  0  0  0  0  0  0  0  0  0
    8.3960   -0.7171   -1.0968 H   0  0  0  0  0  0  0  0  0  0  0  0
    8.3910    1.6671   -0.4218 H   0  0  0  0  0  0  0  0  0  0  0  0
   -6.2187    1.2165    1.6467 H   0  0  0  0  0  0  0  0  0  0  0  0
   -6.4117    2.6875    0.6319 H   0  0  0  0  0  0  0  0  0  0  0  0
   -7.6777    1.4516    0.6675 H   0  0  0  0  0  0  0  0  0  0  0  0
   -5.7829   -3.0033    0.8798 H   0  0  0  0  0  0  0  0  0  0  0  0
   -6.8619   -1.5703    0.8958 H   0  0  0  0  0  0  0  0  0  0  0  0
   -7.2183   -2.9491   -0.1669 H   0  0  0  0  0  0  0  0  0  0  0  0
   -4.4042    3.1132   -1.6484 H   0  0  0  0  0  0  0  0  0  0  0  0
   -3.8675    4.4105   -0.5588 H   0  0  0  0  0  0  0  0  0  0  0  0
   -2.6663    3.2910   -1.2396 H   0  0  0  0  0  0  0  0  0  0  0  0
  1 13  1  0  0  0  0
  1 24  1  0  0  0  0
  2 14  1  0  0  0  0
  2 25  1  0  0  0  0
  3 15  1  0  0  0  0
  3 26  1  0  0  0  0
  4 19  2  0  0  0  0
  5  6  1  0  0  0  0
  5  8  1  0  0  0  0
  5 12  2  0  0  0  0
  6 10  1  0  0  0  0
  6 16  2  0  0  0  0
  7  8  2  0  0  0  0
  7 11  1  0  0  0  0
  7 19  1  0  0  0  0
  8 27  1  0  0  0  0
  9 17  2  0  0  0  0
  9 18  1  0  0  0  0
  9 20  1  0  0  0  0
 10 11  2  0  0  0  0
 10 28  1  0  0  0  0
 11 29  1  0  0  0  0
 12 22  1  0  0  0  0
 12 30  1  0  0  0  0
 13 14  2  0  0  0  0
 13 15  1  0  0  0  0
 14 17  1  0  0  0  0
 15 18  2  0  0  0  0
 16 23  1  0  0  0  0
 16 33  1  0  0  0  0
 17 31  1  0  0  0  0
 18 32  1  0  0  0  0
 19 21  1  0  0  0  0
 20 21  2  0  0  0  0
 20 34  1  0  0  0  0
 21 35  1  0  0  0  0
 22 23  2  0  0  0  0
 22 36  1  0  0  0  0
 23 37  1  0  0  0  0
 24 38  1  0  0  0  0
 24 39  1  0  0  0  0
 24 40  1  0  0  0  0
 25 41  1  0  0  0  0
 25 42  1  0  0  0  0
 25 43  1  0  0  0  0
 26 44  1  0  0  0  0
 26 45  1  0  0  0  0
 26 46  1  0  0  0  0
M  END
> <PUBCHEM_COMPOUND_CID>
5476176

> <PUBCHEM_CONFORMER_RMSD>
0.8

> <PUBCHEM_CONFORMER_DIVERSEORDER>
1
22
29
12
32
30
38
31
11
16
33
14
41
4
39
40
28
5
36
25
6
13
10
15
7
21
9
19
20
26
17
27
8
23
34
35
2
18
37
3
24

> <PUBCHEM_MMFF94_PARTIAL_CHARGES>
35
1 -0.36
10 -0.15
11 -0.15
12 -0.15
13 0.08
14 0.08
15 0.08
16 -0.15
17 -0.15
18 -0.15
19 0.47
2 -0.36
20 -0.18
21 -0.14
22 -0.15
23 -0.15
24 0.28
25 0.28
26 0.28
27 0.15
28 0.15
29 0.15
3 -0.36
30 0.15
31 0.15
32 0.15
33 0.15
34 0.15
35 0.15
36 0.15
37 0.15
4 -0.57
7 0.09
8 -0.15
9 0.03

> <PUBCHEM_EFFECTIVE_ROTOR_COUNT>
6

> <PUBCHEM_PHARMACOPHORE_FEATURES>
7
1 1 acceptor
1 2 acceptor
1 3 acceptor
1 4 acceptor
6 5 6 12 16 22 23 rings
6 5 6 7 8 10 11 rings
6 9 13 14 15 17 18 rings

> <PUBCHEM_HEAVY_ATOM_COUNT>
26

> <PUBCHEM_ATOM_DEF_STEREO_COUNT>
0

> <PUBCHEM_ATOM_UDEF_STEREO_COUNT>
0

> <PUBCHEM_BOND_DEF_STEREO_COUNT>
1

> <PUBCHEM_BOND_UDEF_STEREO_COUNT>
0

> <PUBCHEM_ISOTOPIC_ATOM_COUNT>
0

> <PUBCHEM_COMPONENT_COUNT>
1

> <PUBCHEM_CACTVS_TAUTO_COUNT>
1

> <PUBCHEM_CONFORMER_ID>
00538F5000000001

> <PUBCHEM_MMFF94_ENERGY>
114.8088

> <PUBCHEM_FEATURE_SELFOVERLAP>
35.559

> <PUBCHEM_SHAPE_FINGERPRINT>
10 15 18041000614276310977
10411042 1 17906452479065283567
10595046 47 18408881819703522635
10670039 82 18408037412106078092
10730089 173 18413671309644383433
11101153 10 18335702797041344397
11315621 246 17916574475150267423
11524674 6 15410615925838432159
11719270 70 17917428701749857710
12107183 9 17687737242944742995
12166972 35 18340771537055522048
12236239 1 18410291410805927302
12616971 3 13326569691776267530
13533116 47 17313374583960062322
13668630 136 16702310074521009310
14528608 73 18410571795108741210
14933364 13 18341896302832002738
15183329 4 18201723925347129472
15348495 7 7925622294171395286
15419008 145 18115291299583250824
1577012 14 18261387836605868074
15778101 99 18343023260002439881
15961568 22 18335138678619415997
17844677 252 18413112774954226712
18608769 82 18409734001756002603
18681886 176 18343014532296448762
19611394 137 17970359328575135523
20281389 69 18187082824211642804
21033648 29 18338792425200263176
21267235 1 18339363075988126971
21279426 13 18341335483999875580
21315763 28 18410011048832238918
22061861 79 16988847172585000228
221357 26 18272649082369354104
23559900 14 18272080643163275417
2747138 104 18189059853492554211
3004659 81 18412262831661045616
3545911 37 18412263917406822817
397830 11 11386661762100973318
4073 2 18260553341841026530
4098825 35 18341896259993288042
4325135 7 18412543249764837903
44317340 157 17489302040403730240
497634 4 17989209244304973745
504579 68 18341038675626181735
59755656 520 17967810570063919466
9996256 80 18412824698628820726

> <PUBCHEM_SHAPE_MULTIPOLES>
511.59
21.99
2.71
0.81
10.85
1.04
-0.02
3.78
-3.18
-3.76
-0.14
0.02
0.08
0.27

> <PUBCHEM_SHAPE_SELFOVERLAP>
1112.695

> <PUBCHEM_SHAPE_VOLUME>
280.4

> <PUBCHEM_COORDINATE_TYPE>
2
5
10

$$$$