44285571
  -OEChem-03242010103D

 60 61  0     1  0  0  0  0  0999 V2000
   -0.1040    1.2984   -1.0965 O   0  0  0  0  0  0  0  0  0  0  0  0
   -0.8560   -2.4996   -2.5083 O   0  0  0  0  0  0  0  0  0  0  0  0
   -2.0839    1.2187    1.0043 O   0  0  0  0  0  0  0  0  0  0  0  0
   -1.5502    2.2428   -2.6102 O   0  0  0  0  0  0  0  0  0  0  0  0
   -4.4417   -0.8919    1.1609 O   0  0  0  0  0  0  0  0  0  0  0  0
   -0.6182    2.0278    2.5913 O   0  0  0  0  0  0  0  0  0  0  0  0
   -2.5444   -1.6326    0.0331 N   0  0  0  0  0  0  0  0  0  0  0  0
   -1.0849   -1.5454   -0.2536 C   0  0  2  0  0  0  0  0  0  0  0  0
   -0.7042   -1.3038   -1.7410 C   0  0  2  0  0  0  0  0  0  0  0  0
    0.2829    2.5833   -0.5511 C   0  0  1  0  0  0  0  0  0  0  0  0
   -0.8074    3.1071    0.4114 C   0  0  2  0  0  0  0  0  0  0  0  0
   -0.3527   -2.7595    0.3336 C   0  0  0  0  0  0  0  0  0  0  0  0
    1.6480    2.3770    0.1005 C   0  0  0  0  0  0  0  0  0  0  0  0
   -1.4392   -0.1514   -2.4440 C   0  0  0  0  0  0  0  0  0  0  0  0
    2.6609    1.8239   -0.8984 C   0  0  0  0  0  0  0  0  0  0  0  0
   -1.0431    1.2630   -2.0745 C   0  0  0  0  0  0  0  0  0  0  0  0
    1.0872   -2.4451    0.6228 C   0  0  0  0  0  0  0  0  0  0  0  0
   -0.4507    4.4489    1.0476 C   0  0  0  0  0  0  0  0  0  0  0  0
   -3.2201   -0.8461    0.9802 C   0  0  0  0  0  0  0  0  0  0  0  0
   -1.1410    2.0809    1.4864 C   0  0  0  0  0  0  0  0  0  0  0  0
    4.0172    1.5884   -0.2342 C   0  0  0  0  0  0  0  0  0  0  0  0
   -3.3352   -2.6185   -0.7032 C   0  0  0  0  0  0  0  0  0  0  0  0
   -2.4022    0.1013    1.8328 C   0  0  0  0  0  0  0  0  0  0  0  0
    2.0572   -2.6559   -0.3571 C   0  0  0  0  0  0  0  0  0  0  0  0
    1.4544   -1.9422    1.8709 C   0  0  0  0  0  0  0  0  0  0  0  0
    5.0235    1.0057   -1.2135 C   0  0  0  0  0  0  0  0  0  0  0  0
    3.3946   -2.3640   -0.0888 C   0  0  0  0  0  0  0  0  0  0  0  0
    2.7916   -1.6502    2.1392 C   0  0  0  0  0  0  0  0  0  0  0  0
    3.7618   -1.8611    1.1593 C   0  0  0  0  0  0  0  0  0  0  0  0
   -0.7143   -0.6692    0.2770 H   0  0  0  0  0  0  0  0  0  0  0  0
    0.3661   -1.0734   -1.7827 H   0  0  0  0  0  0  0  0  0  0  0  0
    0.4015    3.2944   -1.3797 H   0  0  0  0  0  0  0  0  0  0  0  0
   -1.7327    3.2704   -0.1573 H   0  0  0  0  0  0  0  0  0  0  0  0
   -0.8316   -3.0647    1.2746 H   0  0  0  0  0  0  0  0  0  0  0  0
   -0.4272   -3.6407   -0.3150 H   0  0  0  0  0  0  0  0  0  0  0  0
    1.5632    1.6645    0.9300 H   0  0  0  0  0  0  0  0  0  0  0  0
    2.0249    3.3198    0.5107 H   0  0  0  0  0  0  0  0  0  0  0  0
   -2.5194   -0.2400   -2.2914 H   0  0  0  0  0  0  0  0  0  0  0  0
   -1.2690   -0.2390   -3.5248 H   0  0  0  0  0  0  0  0  0  0  0  0
    2.3083    0.8744   -1.3178 H   0  0  0  0  0  0  0  0  0  0  0  0
    2.7764    2.5237   -1.7350 H   0  0  0  0  0  0  0  0  0  0  0  0
    0.3992    4.3696    1.7329 H   0  0  0  0  0  0  0  0  0  0  0  0
   -1.2960    4.8302    1.6316 H   0  0  0  0  0  0  0  0  0  0  0  0
   -0.2083    5.1919    0.2810 H   0  0  0  0  0  0  0  0  0  0  0  0
    4.4069    2.5368    0.1545 H   0  0  0  0  0  0  0  0  0  0  0  0
    3.9067    0.9173    0.6220 H   0  0  0  0  0  0  0  0  0  0  0  0
   -2.8442   -3.5934   -0.6437 H   0  0  0  0  0  0  0  0  0  0  0  0
   -4.3451   -2.7205   -0.2974 H   0  0  0  0  0  0  0  0  0  0  0  0
   -3.4165   -2.3110   -1.7481 H   0  0  0  0  0  0  0  0  0  0  0  0
   -3.0169    0.4422    2.6731 H   0  0  0  0  0  0  0  0  0  0  0  0
   -1.5112   -0.3958    2.2281 H   0  0  0  0  0  0  0  0  0  0  0  0
   -0.5011   -2.3288   -3.3973 H   0  0  0  0  0  0  0  0  0  0  0  0
    1.7891   -3.0567   -1.3307 H   0  0  0  0  0  0  0  0  0  0  0  0
    0.7085   -1.7709    2.6423 H   0  0  0  0  0  0  0  0  0  0  0  0
    4.6715    0.0545   -1.6239 H   0  0  0  0  0  0  0  0  0  0  0  0
    5.9801    0.8275   -0.7127 H   0  0  0  0  0  0  0  0  0  0  0  0
    5.1997    1.6928   -2.0474 H   0  0  0  0  0  0  0  0  0  0  0  0
    4.1501   -2.5301   -0.8510 H   0  0  0  0  0  0  0  0  0  0  0  0
    3.0774   -1.2570    3.1103 H   0  0  0  0  0  0  0  0  0  0  0  0
    4.8030   -1.6333    1.3678 H   0  0  0  0  0  0  0  0  0  0  0  0
  1 10  1  0  0  0  0
  1 16  1  0  0  0  0
  2  9  1  0  0  0  0
  2 52  1  0  0  0  0
  3 20  1  0  0  0  0
  3 23  1  0  0  0  0
  4 16  2  0  0  0  0
  5 19  2  0  0  0  0
  6 20  2  0  0  0  0
  7  8  1  0  0  0  0
  7 19  1  0  0  0  0
  7 22  1  0  0  0  0
  8  9  1  0  0  0  0
  8 12  1  0  0  0  0
  8 30  1  0  0  0  0
  9 14  1  0  0  0  0
  9 31  1  0  0  0  0
 10 11  1  0  0  0  0
 10 13  1  0  0  0  0
 10 32  1  0  0  0  0
 11 18  1  0  0  0  0
 11 20  1  0  0  0  0
 11 33  1  0  0  0  0
 12 17  1  0  0  0  0
 12 34  1  0  0  0  0
 12 35  1  0  0  0  0
 13 15  1  0  0  0  0
 13 36  1  0  0  0  0
 13 37  1  0  0  0  0
 14 16  1  0  0  0  0
 14 38  1  0  0  0  0
 14 39  1  0  0  0  0
 15 21  1  0  0  0  0
 15 40  1  0  0  0  0
 15 41  1  0  0  0  0
 17 24  2  0  0  0  0
 17 25  1  0  0  0  0
 18 42  1  0  0  0  0
 18 43  1  0  0  0  0
 18 44  1  0  0  0  0
 19 23  1  0  0  0  0
 21 26  1  0  0  0  0
 21 45  1  0  0  0  0
 21 46  1  0  0  0  0
 22 47  1  0  0  0  0
 22 48  1  0  0  0  0
 22 49  1  0  0  0  0
 23 50  1  0  0  0  0
 23 51  1  0  0  0  0
 24 27  1  0  0  0  0
 24 53  1  0  0  0  0
 25 28  2  0  0  0  0
 25 54  1  0  0  0  0
 26 55  1  0  0  0  0
 26 56  1  0  0  0  0
 26 57  1  0  0  0  0
 27 29  2  0  0  0  0
 27 58  1  0  0  0  0
 28 29  1  0  0  0  0
 28 59  1  0  0  0  0
 29 60  1  0  0  0  0
M  END
> <PUBCHEM_COMPOUND_CID>
44285571

> <PUBCHEM_CONFORMER_RMSD>
0.8

> <PUBCHEM_CONFORMER_DIVERSEORDER>
1
54
9
23
19
47
50
46
45
49
43
57
66
37
51
52
24
4
73
41
58
20
27
38
64
71
3
35
68
62
59
55
34
63
14
33
53
72
65
13
11
36
12
2
26
15
75
25
8
22
16
60
21
69
10
42
7
44
30
28
17
31
70
40
39
74
32
18
67
61
6
48
29
56
5

> <PUBCHEM_MMFF94_PARTIAL_CHARGES>
30
1 -0.43
10 0.28
11 0.06
12 0.14
14 0.06
16 0.66
17 -0.14
19 0.57
2 -0.68
20 0.66
22 0.3
23 0.34
24 -0.15
25 -0.15
27 -0.15
28 -0.15
29 -0.15
3 -0.43
4 -0.57
5 -0.57
52 0.4
53 0.15
54 0.15
58 0.15
59 0.15
6 -0.57
60 0.15
7 -0.66
8 0.3
9 0.28

> <PUBCHEM_EFFECTIVE_ROTOR_COUNT>
6.8

> <PUBCHEM_PHARMACOPHORE_FEATURES>
7
1 2 acceptor
1 2 donor
1 26 hydrophobe
1 4 acceptor
1 5 acceptor
1 6 acceptor
6 17 24 25 27 28 29 rings

> <PUBCHEM_HEAVY_ATOM_COUNT>
29

> <PUBCHEM_ATOM_DEF_STEREO_COUNT>
4

> <PUBCHEM_ATOM_UDEF_STEREO_COUNT>
0

> <PUBCHEM_BOND_DEF_STEREO_COUNT>
0

> <PUBCHEM_BOND_UDEF_STEREO_COUNT>
0

> <PUBCHEM_ISOTOPIC_ATOM_COUNT>
0

> <PUBCHEM_COMPONENT_COUNT>
1

> <PUBCHEM_CACTVS_TAUTO_COUNT>
8

> <PUBCHEM_CONFORMER_ID>
02A3BE8300000001

> <PUBCHEM_MMFF94_ENERGY>
62.6899

> <PUBCHEM_FEATURE_SELFOVERLAP>
35.522

> <PUBCHEM_SHAPE_FINGERPRINT>
11370993 70 17112684350903538985
11578080 2 17458347381834841957
12156800 1 17554083981047759454
12633257 1 17393903755648673848
12788726 201 18052006828623658396
128993 33 16904384621990310450
18981168 100 17687741640923142874
19930381 70 16470373898947832334
20600515 1 14964523893224604621
23419403 2 18040995086463432037
2818148 4 18340498776804571766
35225 105 17417529095022605688
445580 8 18272089435061244970
469060 322 17677062346802120500
6287921 2 18271251521613133850

> <PUBCHEM_SHAPE_MULTIPOLES>
556.61
6.17
4.97
2.48
4.26
2.55
-0.51
-2.12
0.48
0.37
0.65
-0.93
0.25
-1.52

> <PUBCHEM_SHAPE_SELFOVERLAP>
1134.636

> <PUBCHEM_SHAPE_VOLUME>
318.8

> <PUBCHEM_COORDINATE_TYPE>
2
5
10

$$$$