118737178
  -OEChem-03242010103D

 53 56  0     0  0  0  0  0  0999 V2000
    0.5557    3.2027    1.7225 O   0  0  0  0  0  0  0  0  0  0  0  0
   -0.1494    5.5001    0.3246 O   0  0  0  0  0  0  0  0  0  0  0  0
   -4.2252    0.8195   -0.7650 O   0  0  0  0  0  0  0  0  0  0  0  0
    6.3357   -0.0949   -0.8415 O   0  0  0  0  0  0  0  0  0  0  0  0
   -2.3342   -0.4558   -0.1969 N   0  0  0  0  0  0  0  0  0  0  0  0
    1.3643   -2.1391    0.5010 N   0  0  0  0  0  0  0  0  0  0  0  0
    0.3123   -2.0500   -0.3249 N   0  0  0  0  0  0  0  0  0  0  0  0
   -0.1378   -3.0948    1.6329 N   0  0  0  0  0  0  0  0  0  0  0  0
    1.1435   -2.7505    1.6731 N   0  0  0  0  0  0  0  0  0  0  0  0
   -1.9712   -2.8553    0.0165 C   0  0  0  0  0  0  0  0  0  0  0  0
   -2.7981   -1.7726   -0.2828 C   0  0  0  0  0  0  0  0  0  0  0  0
   -0.6052   -2.6626    0.4276 C   0  0  0  0  0  0  0  0  0  0  0  0
   -2.2815    1.9811   -0.2317 C   0  0  0  0  0  0  0  0  0  0  0  0
   -2.4639   -4.1567   -0.0799 C   0  0  0  0  0  0  0  0  0  0  0  0
   -4.1177   -1.9913   -0.6785 C   0  0  0  0  0  0  0  0  0  0  0  0
   -3.0482    0.7238   -0.4343 C   0  0  0  0  0  0  0  0  0  0  0  0
    2.6114   -1.6272    0.1639 C   0  0  0  0  0  0  0  0  0  0  0  0
   -1.2091    2.0085    0.6597 C   0  0  0  0  0  0  0  0  0  0  0  0
   -3.7835   -4.3754   -0.4755 C   0  0  0  0  0  0  0  0  0  0  0  0
   -4.6104   -3.2928   -0.7749 C   0  0  0  0  0  0  0  0  0  0  0  0
   -2.6348    3.1337   -0.9336 C   0  0  0  0  0  0  0  0  0  0  0  0
   -0.4900    3.1884    0.8494 C   0  0  0  0  0  0  0  0  0  0  0  0
   -0.8431    4.3410    0.1475 C   0  0  0  0  0  0  0  0  0  0  0  0
   -1.9156    4.3137   -0.7439 C   0  0  0  0  0  0  0  0  0  0  0  0
    3.6769   -1.7418    1.0566 C   0  0  0  0  0  0  0  0  0  0  0  0
    2.7970   -0.9970   -1.0667 C   0  0  0  0  0  0  0  0  0  0  0  0
    5.1140   -0.5963   -0.5117 C   0  0  0  0  0  0  0  0  0  0  0  0
    4.9282   -1.2264    0.7188 C   0  0  0  0  0  0  0  0  0  0  0  0
    4.0484   -0.4816   -1.4045 C   0  0  0  0  0  0  0  0  0  0  0  0
    0.8510    1.9825    2.3996 C   0  0  0  0  0  0  0  0  0  0  0  0
   -0.5755    6.6320   -0.4314 C   0  0  0  0  0  0  0  0  0  0  0  0
    6.4560    0.5352   -2.1160 C   0  0  0  0  0  0  0  0  0  0  0  0
   -1.3487   -0.3719    0.0294 H   0  0  0  0  0  0  0  0  0  0  0  0
   -1.8339   -5.0136    0.1476 H   0  0  0  0  0  0  0  0  0  0  0  0
   -4.8253   -1.2175   -0.9355 H   0  0  0  0  0  0  0  0  0  0  0  0
   -0.9890    1.1159    1.2306 H   0  0  0  0  0  0  0  0  0  0  0  0
   -4.1670   -5.3886   -0.5513 H   0  0  0  0  0  0  0  0  0  0  0  0
   -5.6373   -3.4649   -1.0844 H   0  0  0  0  0  0  0  0  0  0  0  0
   -3.4640    3.1304   -1.6364 H   0  0  0  0  0  0  0  0  0  0  0  0
   -2.2458    5.1689   -1.3234 H   0  0  0  0  0  0  0  0  0  0  0  0
    3.5726   -2.2250    2.0246 H   0  0  0  0  0  0  0  0  0  0  0  0
    1.9909   -0.8876   -1.7878 H   0  0  0  0  0  0  0  0  0  0  0  0
    5.7549   -1.3186    1.4180 H   0  0  0  0  0  0  0  0  0  0  0  0
    4.1233   -0.0044   -2.3756 H   0  0  0  0  0  0  0  0  0  0  0  0
    1.7184    2.1730    3.0405 H   0  0  0  0  0  0  0  0  0  0  0  0
    1.1438    1.1911    1.7009 H   0  0  0  0  0  0  0  0  0  0  0  0
    0.0318    1.6779    3.0599 H   0  0  0  0  0  0  0  0  0  0  0  0
    0.0860    7.4636   -0.1669 H   0  0  0  0  0  0  0  0  0  0  0  0
   -1.5925    6.9374   -0.1627 H   0  0  0  0  0  0  0  0  0  0  0  0
   -0.4606    6.4650   -1.5079 H   0  0  0  0  0  0  0  0  0  0  0  0
    5.8208    1.4248   -2.1866 H   0  0  0  0  0  0  0  0  0  0  0  0
    6.2737   -0.1711   -2.9330 H   0  0  0  0  0  0  0  0  0  0  0  0
    7.4927    0.8744   -2.2122 H   0  0  0  0  0  0  0  0  0  0  0  0
  1 22  1  0  0  0  0
  1 30  1  0  0  0  0
  2 23  1  0  0  0  0
  2 31  1  0  0  0  0
  3 16  2  0  0  0  0
  4 27  1  0  0  0  0
  4 32  1  0  0  0  0
  5 11  1  0  0  0  0
  5 16  1  0  0  0  0
  5 33  1  0  0  0  0
  6  7  1  0  0  0  0
  6  9  1  0  0  0  0
  6 17  1  0  0  0  0
  7 12  2  0  0  0  0
  8  9  2  0  0  0  0
  8 12  1  0  0  0  0
 10 11  1  0  0  0  0
 10 12  1  0  0  0  0
 10 14  2  0  0  0  0
 11 15  2  0  0  0  0
 13 16  1  0  0  0  0
 13 18  2  0  0  0  0
 13 21  1  0  0  0  0
 14 19  1  0  0  0  0
 14 34  1  0  0  0  0
 15 20  1  0  0  0  0
 15 35  1  0  0  0  0
 17 25  2  0  0  0  0
 17 26  1  0  0  0  0
 18 22  1  0  0  0  0
 18 36  1  0  0  0  0
 19 20  2  0  0  0  0
 19 37  1  0  0  0  0
 20 38  1  0  0  0  0
 21 24  2  0  0  0  0
 21 39  1  0  0  0  0
 22 23  2  0  0  0  0
 23 24  1  0  0  0  0
 24 40  1  0  0  0  0
 25 28  1  0  0  0  0
 25 41  1  0  0  0  0
 26 29  2  0  0  0  0
 26 42  1  0  0  0  0
 27 28  2  0  0  0  0
 27 29  1  0  0  0  0
 28 43  1  0  0  0  0
 29 44  1  0  0  0  0
 30 45  1  0  0  0  0
 30 46  1  0  0  0  0
 30 47  1  0  0  0  0
 31 48  1  0  0  0  0
 31 49  1  0  0  0  0
 31 50  1  0  0  0  0
 32 51  1  0  0  0  0
 32 52  1  0  0  0  0
 32 53  1  0  0  0  0
M  END
> <PUBCHEM_COMPOUND_CID>
118737178

> <PUBCHEM_CONFORMER_RMSD>
1

> <PUBCHEM_CONFORMER_DIVERSEORDER>
2
41
52
40
7
13
36
34
18
43
16
17
1
29
10
12
27
38
25
51
14
23
24
30
33
53
50
37
42
44
11
26
46
4
47
32
5
19
35
49
9
48
20
31
15
39
3
8
28
6
21
45
22

> <PUBCHEM_MMFF94_PARTIAL_CHARGES>
44
1 -0.36
10 0.05
11 0.12
12 0.46
13 0.09
14 -0.15
15 -0.15
16 0.54
17 -0.02
18 -0.15
19 -0.15
2 -0.36
20 -0.15
21 -0.15
22 0.08
23 0.08
24 -0.15
25 -0.15
26 -0.15
27 0.08
28 -0.15
29 -0.15
3 -0.57
30 0.28
31 0.28
32 0.28
33 0.37
34 0.15
35 0.15
36 0.15
37 0.15
38 0.15
39 0.15
4 -0.36
40 0.15
41 0.15
42 0.15
43 0.15
44 0.15
5 -0.55
6 0.86
7 -0.71
8 -0.23
9 -0.42

> <PUBCHEM_EFFECTIVE_ROTOR_COUNT>
8

> <PUBCHEM_PHARMACOPHORE_FEATURES>
10
1 1 acceptor
1 2 acceptor
1 3 acceptor
1 4 acceptor
1 5 donor
3 7 8 12 cation
5 6 7 8 9 12 rings
6 10 11 14 15 19 20 rings
6 13 18 21 22 23 24 rings
6 17 25 26 27 28 29 rings

> <PUBCHEM_HEAVY_ATOM_COUNT>
32

> <PUBCHEM_ATOM_DEF_STEREO_COUNT>
0

> <PUBCHEM_ATOM_UDEF_STEREO_COUNT>
0

> <PUBCHEM_BOND_DEF_STEREO_COUNT>
0

> <PUBCHEM_BOND_UDEF_STEREO_COUNT>
0

> <PUBCHEM_ISOTOPIC_ATOM_COUNT>
0

> <PUBCHEM_COMPONENT_COUNT>
1

> <PUBCHEM_CACTVS_TAUTO_COUNT>
6

> <PUBCHEM_CONFORMER_ID>
0713C91A00000002

> <PUBCHEM_MMFF94_ENERGY>
125.023

> <PUBCHEM_FEATURE_SELFOVERLAP>
50.752

> <PUBCHEM_SHAPE_FINGERPRINT>
10050765 1 17762051448178917207
10937287 8 17762055445584180805
11059845 2 17760339138926779506
11476731 47 16605747325169698005
11477941 20 18270679891604212838
11513181 2 17043728483277996438
12107183 9 17684636642125844322
12788726 201 18335141998945691962
133893 2 17549848997307739739
13617811 41 17975398136662286949
13761468 95 18055094085048032070
138480 1 15746127071363233187
14114206 34 18268409283506447541
14114211 80 17912934885714680361
14932702 115 18200020734575740640
15264996 44 17695629936919700086
15400415 2 17690277115480943612
15419008 47 18059857333245188722
15420108 30 17470435245621184306
15439362 3 17689149433151305215
15444296 8 15267347357763932875
15484559 13 16032862537030286837
15927050 60 16971115644759293151
15961568 22 18123742321694068088
15968369 26 17761191603323525981
161222 10 17976570246400965964
17818456 19 18121483679803133346
19319366 153 17968935263427856675
20531524 4 18126538220496285240
20587220 46 15326668406495151279
20642791 35 18267009726276151731
20764821 26 18409162246602464856
21033650 10 18190484717684033262
21133410 221 17267166551151151200
21344244 246 17333073730415156903
23516275 100 17906730663770225588
23559900 14 18050562147532358951
238918 7 17552615360141847984
4017518 198 16467837329669614212
463206 1 18409173241930057389
469060 322 18191894303963385347
5171179 24 18125717035771419107
550186 7 18272375226638695246
6700243 42 17986137251471943878
9981440 41 17617931440357100753

> <PUBCHEM_SHAPE_MULTIPOLES>
610.16
10.18
8.74
1.51
15.2
13.99
0.41
-9.23
-5.83
-7.97
0.42
1.6
0.23
-0.37

> <PUBCHEM_SHAPE_SELFOVERLAP>
1336.004

> <PUBCHEM_SHAPE_VOLUME>
331.6

> <PUBCHEM_COORDINATE_TYPE>
2
5
10

$$$$