70428348
  -OEChem-03242010103D

 51 52  0     0  0  0  0  0  0999 V2000
   -3.4570    1.2195   -0.1285 O   0  0  0  0  0  0  0  0  0  0  0  0
    0.4513    1.2882    1.8591 O   0  0  0  0  0  0  0  0  0  0  0  0
   -1.1834    1.6324   -0.3600 N   0  0  0  0  0  0  0  0  0  0  0  0
    0.1106    1.1463   -0.4305 N   0  0  0  0  0  0  0  0  0  0  0  0
   -1.2578    3.0774   -0.4766 C   0  0  0  0  0  0  0  0  0  0  0  0
    0.1572    3.6396   -0.6478 C   0  0  0  0  0  0  0  0  0  0  0  0
   -1.8961    3.6558    0.7916 C   0  0  0  0  0  0  0  0  0  0  0  0
   -2.1129    3.4442   -1.6950 C   0  0  0  0  0  0  0  0  0  0  0  0
   -2.2954    0.8217   -0.1951 C   0  0  0  0  0  0  0  0  0  0  0  0
   -2.0775   -0.6343   -0.1047 C   0  0  0  0  0  0  0  0  0  0  0  0
    0.8501    1.0090    0.7313 C   0  0  0  0  0  0  0  0  0  0  0  0
   -2.4728   -1.3291    1.0386 C   0  0  0  0  0  0  0  0  0  0  0  0
   -1.4763   -1.3166   -1.1624 C   0  0  0  0  0  0  0  0  0  0  0  0
   -2.2670   -2.7061    1.1239 C   0  0  0  0  0  0  0  0  0  0  0  0
   -1.2708   -2.6936   -1.0772 C   0  0  0  0  0  0  0  0  0  0  0  0
    2.2226    0.4690    0.5577 C   0  0  0  0  0  0  0  0  0  0  0  0
   -1.6661   -3.3885    0.0661 C   0  0  0  0  0  0  0  0  0  0  0  0
   -2.6902   -3.4487    2.3460 C   0  0  0  0  0  0  0  0  0  0  0  0
   -0.6285   -3.4230   -2.2084 C   0  0  0  0  0  0  0  0  0  0  0  0
    2.5132   -0.3633   -0.5233 C   0  0  0  0  0  0  0  0  0  0  0  0
    3.2210    0.7935    1.4762 C   0  0  0  0  0  0  0  0  0  0  0  0
    3.8022   -0.8709   -0.6861 C   0  0  0  0  0  0  0  0  0  0  0  0
    4.5100    0.2857    1.3137 C   0  0  0  0  0  0  0  0  0  0  0  0
    4.8007   -0.5463    0.2324 C   0  0  0  0  0  0  0  0  0  0  0  0
    4.1131   -1.7616   -1.8411 C   0  0  0  0  0  0  0  0  0  0  0  0
   -1.7279    2.9665   -2.6038 H   0  0  0  0  0  0  0  0  0  0  0  0
   -3.1604    3.1469   -1.5885 H   0  0  0  0  0  0  0  0  0  0  0  0
   -2.9416    3.3589    0.9181 H   0  0  0  0  0  0  0  0  0  0  0  0
   -1.3563    3.3396    1.6912 H   0  0  0  0  0  0  0  0  0  0  0  0
   -1.8801    4.7518    0.7675 H   0  0  0  0  0  0  0  0  0  0  0  0
    0.6775    3.2474   -1.5301 H   0  0  0  0  0  0  0  0  0  0  0  0
    0.7897    3.5171    0.2374 H   0  0  0  0  0  0  0  0  0  0  0  0
    0.1000    4.7256   -0.8036 H   0  0  0  0  0  0  0  0  0  0  0  0
   -2.1077    4.5275   -1.8630 H   0  0  0  0  0  0  0  0  0  0  0  0
    0.4532    0.9469   -1.3642 H   0  0  0  0  0  0  0  0  0  0  0  0
   -2.9409   -0.7966    1.8633 H   0  0  0  0  0  0  0  0  0  0  0  0
   -1.1795   -0.7836   -2.0628 H   0  0  0  0  0  0  0  0  0  0  0  0
   -1.5061   -4.4620    0.1333 H   0  0  0  0  0  0  0  0  0  0  0  0
   -2.6281   -2.8132    3.2359 H   0  0  0  0  0  0  0  0  0  0  0  0
   -2.0442   -4.3148    2.5260 H   0  0  0  0  0  0  0  0  0  0  0  0
   -3.7217   -3.7976    2.2352 H   0  0  0  0  0  0  0  0  0  0  0  0
   -0.9374   -3.0020   -3.1713 H   0  0  0  0  0  0  0  0  0  0  0  0
   -0.9129   -4.4806   -2.2150 H   0  0  0  0  0  0  0  0  0  0  0  0
    0.4611   -3.3557   -2.1273 H   0  0  0  0  0  0  0  0  0  0  0  0
    1.7499   -0.6579   -1.2380 H   0  0  0  0  0  0  0  0  0  0  0  0
    3.0150    1.4439    2.3222 H   0  0  0  0  0  0  0  0  0  0  0  0
    5.2876    0.5388    2.0285 H   0  0  0  0  0  0  0  0  0  0  0  0
    5.8086   -0.9364    0.1185 H   0  0  0  0  0  0  0  0  0  0  0  0
    3.8221   -2.7913   -1.6102 H   0  0  0  0  0  0  0  0  0  0  0  0
    3.5784   -1.4365   -2.7401 H   0  0  0  0  0  0  0  0  0  0  0  0
    5.1817   -1.7477   -2.0810 H   0  0  0  0  0  0  0  0  0  0  0  0
  1  9  2  0  0  0  0
  2 11  2  0  0  0  0
  3  4  1  0  0  0  0
  3  5  1  0  0  0  0
  3  9  1  0  0  0  0
  4 11  1  0  0  0  0
  4 35  1  0  0  0  0
  5  6  1  0  0  0  0
  5  7  1  0  0  0  0
  5  8  1  0  0  0  0
  6 31  1  0  0  0  0
  6 32  1  0  0  0  0
  6 33  1  0  0  0  0
  7 28  1  0  0  0  0
  7 29  1  0  0  0  0
  7 30  1  0  0  0  0
  8 26  1  0  0  0  0
  8 27  1  0  0  0  0
  8 34  1  0  0  0  0
  9 10  1  0  0  0  0
 10 12  2  0  0  0  0
 10 13  1  0  0  0  0
 11 16  1  0  0  0  0
 12 14  1  0  0  0  0
 12 36  1  0  0  0  0
 13 15  2  0  0  0  0
 13 37  1  0  0  0  0
 14 17  2  0  0  0  0
 14 18  1  0  0  0  0
 15 17  1  0  0  0  0
 15 19  1  0  0  0  0
 16 20  1  0  0  0  0
 16 21  2  0  0  0  0
 17 38  1  0  0  0  0
 18 39  1  0  0  0  0
 18 40  1  0  0  0  0
 18 41  1  0  0  0  0
 19 42  1  0  0  0  0
 19 43  1  0  0  0  0
 19 44  1  0  0  0  0
 20 22  2  0  0  0  0
 20 45  1  0  0  0  0
 21 23  1  0  0  0  0
 21 46  1  0  0  0  0
 22 24  1  0  0  0  0
 22 25  1  0  0  0  0
 23 24  2  0  0  0  0
 23 47  1  0  0  0  0
 24 48  1  0  0  0  0
 25 49  1  0  0  0  0
 25 50  1  0  0  0  0
 25 51  1  0  0  0  0
M  END
> <PUBCHEM_COMPOUND_CID>
70428348

> <PUBCHEM_CONFORMER_RMSD>
0.8

> <PUBCHEM_CONFORMER_DIVERSEORDER>
2
44
43
35
42
36
28
34
18
9
14
7
32
19
23
20
37
17
40
10
29
8
27
38
33
25
13
21
15
22
41
26
12
6
24
3
4
39
16
5
1
30
11
31

> <PUBCHEM_MMFF94_PARTIAL_CHARGES>
30
1 -0.57
10 0.09
11 0.54
12 -0.15
13 -0.15
14 -0.14
15 -0.14
16 0.09
17 -0.15
18 0.14
19 0.14
2 -0.57
20 -0.15
21 -0.15
22 -0.14
23 -0.15
24 -0.15
25 0.14
3 -0.36
35 0.37
36 0.15
37 0.15
38 0.15
4 -0.43
45 0.15
46 0.15
47 0.15
48 0.15
5 0.3
9 0.54

> <PUBCHEM_EFFECTIVE_ROTOR_COUNT>
6

> <PUBCHEM_PHARMACOPHORE_FEATURES>
6
1 1 acceptor
1 2 acceptor
1 4 donor
4 5 6 7 8 hydrophobe
6 10 12 13 14 15 17 rings
6 16 20 21 22 23 24 rings

> <PUBCHEM_HEAVY_ATOM_COUNT>
25

> <PUBCHEM_ATOM_DEF_STEREO_COUNT>
0

> <PUBCHEM_ATOM_UDEF_STEREO_COUNT>
0

> <PUBCHEM_BOND_DEF_STEREO_COUNT>
0

> <PUBCHEM_BOND_UDEF_STEREO_COUNT>
0

> <PUBCHEM_ISOTOPIC_ATOM_COUNT>
0

> <PUBCHEM_COMPONENT_COUNT>
1

> <PUBCHEM_CACTVS_TAUTO_COUNT>
2

> <PUBCHEM_CONFORMER_ID>
0432A6BC00000002

> <PUBCHEM_MMFF94_ENERGY>
82.3468

> <PUBCHEM_FEATURE_SELFOVERLAP>
30.446

> <PUBCHEM_SHAPE_FINGERPRINT>
107951 10 18116717309385467051
12156800 1 16090163473509549083
12160290 23 18337938013653697880
12363563 72 18045770449819876898
12403259 327 16198482063420729243
12553582 1 17979078506921943054
12633257 1 17201653365684708834
12714826 92 18341059574868302730
12788726 201 18264463179302815313
13140716 1 18264488553996350761
13402501 40 18200882759870290718
13681431 1 17758104183046205477
14022347 108 18261947535543184027
14251757 5 18333740104202642004
14844126 61 18266998692114603386
15163728 17 16882721021698009381
15463212 79 18043238060056260744
1813 80 18120664775182908810
20600515 1 17174290919205053216
23419403 2 17045746684495091265
23557571 272 18410845569404665416
23598288 3 18260834833764809046
238 59 17693070990935943045
3187 122 18337396040442051455
3298306 158 17764020264457627006
3380486 145 17986384701263358931
5283178 26 17272887331182434038
57091435 65 17688880052216762420
59755656 215 18197211456881747093
6287921 2 17409091739333401258
70634741 139 17839784459272177830
7097593 13 17764040450988885123
81228 2 18338504309523935705
9709674 26 18272644632878037964

> <PUBCHEM_SHAPE_MULTIPOLES>
492.79
6.93
5.34
1.9
9.76
1.74
0.06
-2.97
1.21
-5.72
-1.1
-0.1
-1.23
2.14

> <PUBCHEM_SHAPE_SELFOVERLAP>
1042.471

> <PUBCHEM_SHAPE_VOLUME>
277.7

> <PUBCHEM_COORDINATE_TYPE>
2
5
10

$$$$