19367952
  -OEChem-03242010103D

 52 53  0     0  0  0  0  0  0999 V2000
   -3.8174    0.6654   -0.3231 O   0  0  0  0  0  0  0  0  0  0  0  0
   -0.1103    1.4345    1.8905 O   0  0  0  0  0  0  0  0  0  0  0  0
    4.1894   -0.9686   -1.3861 O   0  0  0  0  0  0  0  0  0  0  0  0
   -1.6337    1.4480   -0.4326 N   0  0  0  0  0  0  0  0  0  0  0  0
   -0.2752    1.1841   -0.4093 N   0  0  0  0  0  0  0  0  0  0  0  0
   -1.9391    2.8570   -0.6020 C   0  0  0  0  0  0  0  0  0  0  0  0
   -2.7447    3.3495    0.6057 C   0  0  0  0  0  0  0  0  0  0  0  0
   -0.6288    3.6443   -0.7073 C   0  0  0  0  0  0  0  0  0  0  0  0
   -2.7629    3.0467   -1.8809 C   0  0  0  0  0  0  0  0  0  0  0  0
   -2.6041    0.4665   -0.3068 C   0  0  0  0  0  0  0  0  0  0  0  0
   -2.1540   -0.9300   -0.1539 C   0  0  0  0  0  0  0  0  0  0  0  0
   -2.5026   -1.6543    0.9860 C   0  0  0  0  0  0  0  0  0  0  0  0
   -1.3808   -1.5264   -1.1499 C   0  0  0  0  0  0  0  0  0  0  0  0
    0.4006    1.1999    0.7984 C   0  0  0  0  0  0  0  0  0  0  0  0
   -2.0780   -2.9750    1.1301 C   0  0  0  0  0  0  0  0  0  0  0  0
   -0.9563   -2.8473   -1.0058 C   0  0  0  0  0  0  0  0  0  0  0  0
   -1.3048   -3.5716    0.1341 C   0  0  0  0  0  0  0  0  0  0  0  0
    1.8519    0.8932    0.7245 C   0  0  0  0  0  0  0  0  0  0  0  0
   -2.4511   -3.7499    2.3487 C   0  0  0  0  0  0  0  0  0  0  0  0
   -0.1292   -3.4854   -2.0704 C   0  0  0  0  0  0  0  0  0  0  0  0
    2.3448    0.0963   -0.3086 C   0  0  0  0  0  0  0  0  0  0  0  0
    2.7219    1.4027    1.6883 C   0  0  0  0  0  0  0  0  0  0  0  0
    3.7080   -0.1910   -0.3780 C   0  0  0  0  0  0  0  0  0  0  0  0
    4.0852    1.1154    1.6190 C   0  0  0  0  0  0  0  0  0  0  0  0
    4.5781    0.3186    0.5857 C   0  0  0  0  0  0  0  0  0  0  0  0
    5.5934   -1.2225   -1.3964 C   0  0  0  0  0  0  0  0  0  0  0  0
   -3.7324    2.8847    0.6795 H   0  0  0  0  0  0  0  0  0  0  0  0
   -2.2190    3.1493    1.5459 H   0  0  0  0  0  0  0  0  0  0  0  0
   -2.9092    4.4319    0.5456 H   0  0  0  0  0  0  0  0  0  0  0  0
    0.0050    3.3244   -1.5434 H   0  0  0  0  0  0  0  0  0  0  0  0
   -0.0432    3.6501    0.2176 H   0  0  0  0  0  0  0  0  0  0  0  0
   -0.8552    4.7014   -0.9029 H   0  0  0  0  0  0  0  0  0  0  0  0
   -2.2463    2.6194   -2.7484 H   0  0  0  0  0  0  0  0  0  0  0  0
   -3.7512    2.5806   -1.8271 H   0  0  0  0  0  0  0  0  0  0  0  0
   -2.9267    4.1115   -2.0847 H   0  0  0  0  0  0  0  0  0  0  0  0
    0.1551    1.0227   -1.3136 H   0  0  0  0  0  0  0  0  0  0  0  0
   -3.1050   -1.1884    1.7626 H   0  0  0  0  0  0  0  0  0  0  0  0
   -1.1184   -0.9723   -2.0482 H   0  0  0  0  0  0  0  0  0  0  0  0
   -0.9739   -4.6014    0.2471 H   0  0  0  0  0  0  0  0  0  0  0  0
   -2.5597   -3.0920    3.2176 H   0  0  0  0  0  0  0  0  0  0  0  0
   -1.6805   -4.4866    2.5999 H   0  0  0  0  0  0  0  0  0  0  0  0
   -3.3978   -4.2741    2.1851 H   0  0  0  0  0  0  0  0  0  0  0  0
   -0.4227   -3.1269   -3.0630 H   0  0  0  0  0  0  0  0  0  0  0  0
   -0.2534   -4.5736   -2.0733 H   0  0  0  0  0  0  0  0  0  0  0  0
    0.9290   -3.2551   -1.9114 H   0  0  0  0  0  0  0  0  0  0  0  0
    1.6933   -0.3396   -1.0606 H   0  0  0  0  0  0  0  0  0  0  0  0
    2.3573    2.0293    2.4980 H   0  0  0  0  0  0  0  0  0  0  0  0
    4.7621    1.5137    2.3692 H   0  0  0  0  0  0  0  0  0  0  0  0
    5.6471    0.1353    0.5919 H   0  0  0  0  0  0  0  0  0  0  0  0
    6.1683   -0.2997   -1.5295 H   0  0  0  0  0  0  0  0  0  0  0  0
    5.9074   -1.7832   -0.5094 H   0  0  0  0  0  0  0  0  0  0  0  0
    5.8008   -1.8562   -2.2649 H   0  0  0  0  0  0  0  0  0  0  0  0
  1 10  2  0  0  0  0
  2 14  2  0  0  0  0
  3 23  1  0  0  0  0
  3 26  1  0  0  0  0
  4  5  1  0  0  0  0
  4  6  1  0  0  0  0
  4 10  1  0  0  0  0
  5 14  1  0  0  0  0
  5 36  1  0  0  0  0
  6  7  1  0  0  0  0
  6  8  1  0  0  0  0
  6  9  1  0  0  0  0
  7 27  1  0  0  0  0
  7 28  1  0  0  0  0
  7 29  1  0  0  0  0
  8 30  1  0  0  0  0
  8 31  1  0  0  0  0
  8 32  1  0  0  0  0
  9 33  1  0  0  0  0
  9 34  1  0  0  0  0
  9 35  1  0  0  0  0
 10 11  1  0  0  0  0
 11 12  2  0  0  0  0
 11 13  1  0  0  0  0
 12 15  1  0  0  0  0
 12 37  1  0  0  0  0
 13 16  2  0  0  0  0
 13 38  1  0  0  0  0
 14 18  1  0  0  0  0
 15 17  2  0  0  0  0
 15 19  1  0  0  0  0
 16 17  1  0  0  0  0
 16 20  1  0  0  0  0
 17 39  1  0  0  0  0
 18 21  2  0  0  0  0
 18 22  1  0  0  0  0
 19 40  1  0  0  0  0
 19 41  1  0  0  0  0
 19 42  1  0  0  0  0
 20 43  1  0  0  0  0
 20 44  1  0  0  0  0
 20 45  1  0  0  0  0
 21 23  1  0  0  0  0
 21 46  1  0  0  0  0
 22 24  2  0  0  0  0
 22 47  1  0  0  0  0
 23 25  2  0  0  0  0
 24 25  1  0  0  0  0
 24 48  1  0  0  0  0
 25 49  1  0  0  0  0
 26 50  1  0  0  0  0
 26 51  1  0  0  0  0
 26 52  1  0  0  0  0
M  END
> <PUBCHEM_COMPOUND_CID>
19367952

> <PUBCHEM_CONFORMER_RMSD>
0.8

> <PUBCHEM_CONFORMER_DIVERSEORDER>
2
40
61
32
37
45
72
26
56
35
70
59
33
44
68
38
46
55
53
36
28
54
19
71
14
31
27
52
67
39
66
49
60
24
30
1
47
57
65
51
13
29
43
62
34
9
64
25
63
69
42
58
15
50
41
7
17
3
21
18
48
16
11
23
4
5
6
8
20
12
22
10

> <PUBCHEM_MMFF94_PARTIAL_CHARGES>
31
1 -0.57
10 0.54
11 0.09
12 -0.15
13 -0.15
14 0.54
15 -0.14
16 -0.14
17 -0.15
18 0.09
19 0.14
2 -0.57
20 0.14
21 -0.15
22 -0.15
23 0.08
24 -0.15
25 -0.15
26 0.28
3 -0.36
36 0.37
37 0.15
38 0.15
39 0.15
4 -0.36
46 0.15
47 0.15
48 0.15
49 0.15
5 -0.43
6 0.3

> <PUBCHEM_EFFECTIVE_ROTOR_COUNT>
7

> <PUBCHEM_PHARMACOPHORE_FEATURES>
7
1 1 acceptor
1 2 acceptor
1 3 acceptor
1 5 donor
4 6 7 8 9 hydrophobe
6 11 12 13 15 16 17 rings
6 18 21 22 23 24 25 rings

> <PUBCHEM_HEAVY_ATOM_COUNT>
26

> <PUBCHEM_ATOM_DEF_STEREO_COUNT>
0

> <PUBCHEM_ATOM_UDEF_STEREO_COUNT>
0

> <PUBCHEM_BOND_DEF_STEREO_COUNT>
0

> <PUBCHEM_BOND_UDEF_STEREO_COUNT>
0

> <PUBCHEM_ISOTOPIC_ATOM_COUNT>
0

> <PUBCHEM_COMPONENT_COUNT>
1

> <PUBCHEM_CACTVS_TAUTO_COUNT>
2

> <PUBCHEM_CONFORMER_ID>
0127881000000002

> <PUBCHEM_MMFF94_ENERGY>
94.2332

> <PUBCHEM_FEATURE_SELFOVERLAP>
35.522

> <PUBCHEM_SHAPE_FINGERPRINT>
107951 10 18188494558012585663
11370993 144 17846509165989938922
11552529 35 16197899357039726390
12156800 1 16232583236182964843
12160290 23 18337652183717299097
12403259 327 16053245416481668139
12553582 1 17761775469735809150
12714826 92 18339929311195494752
12788726 201 18120343640578088929
13135754 10 18263667175929229755
13140716 1 18119804961559067753
13257819 37 18114738214589070309
133893 2 17110127466947234837
13402501 40 18272657822327329134
13941206 138 17970635081985474651
14022347 108 18189319338009810123
14251757 5 18335148574503426220
15163728 17 17099168711830896605
1813 80 17975701897964800834
20600515 1 16814277865672054249
20693207 138 18202569484286115380
21133410 230 17901988225026416907
23366157 5 17107896536342736765
23419403 2 17332567521199861913
23557571 272 18338785802081747656
23559900 14 18201432516549055792
3298306 158 17980751649954618510
3380486 145 17915457426695942562
4015057 19 17702642441714809760
4921388 177 18335144172225192544
5265222 85 18341067237453826454
59755656 215 18269548361227392437
6287921 2 17191510517089333240
70634741 139 18269017349094208038
7097593 13 17546738509161953563
81228 2 18266160889918416385
9709674 26 18200866366259501420

> <PUBCHEM_SHAPE_MULTIPOLES>
507.5
7.75
5.31
1.93
12.48
0.74
-0.24
0.83
0.32
-6.31
0.55
0.17
0.94
2.92

> <PUBCHEM_SHAPE_SELFOVERLAP>
1072.957

> <PUBCHEM_SHAPE_VOLUME>
285.7

> <PUBCHEM_COORDINATE_TYPE>
2
5
10

$$$$