137650393
  -OEChem-03242010103D

 72 76  0     1  0  0  0  0  0999 V2000
    4.6292    1.9455    2.1395 O   0  0  0  0  0  0  0  0  0  0  0  0
    5.3138    2.1133   -0.5474 O   0  0  0  0  0  0  0  0  0  0  0  0
   -3.7037   -0.5618    0.7608 O   0  0  0  0  0  0  0  0  0  0  0  0
   -2.5835    3.0237    1.0047 O   0  0  0  0  0  0  0  0  0  0  0  0
    1.6937   -3.1096    0.3300 N   0  0  2  0  0  0  0  0  0  0  0  0
   -1.0872   -3.8704   -0.2511 N   0  0  0  0  0  0  0  0  0  0  0  0
   -1.1602   -3.1389   -1.3749 N   0  0  0  0  0  0  0  0  0  0  0  0
   -2.2269   -2.3546   -1.2664 N   0  0  0  0  0  0  0  0  0  0  0  0
   -2.2807    1.5458   -0.7926 N   0  0  0  0  0  0  0  0  0  0  0  0
    2.6260   -3.4323   -0.7572 C   0  0  0  0  0  0  0  0  0  0  0  0
    2.3856   -2.3471    1.3842 C   0  0  0  0  0  0  0  0  0  0  0  0
    3.0712   -2.1461   -1.4603 C   0  0  0  0  0  0  0  0  0  0  0  0
    3.1394   -1.1471    0.8580 C   0  0  0  0  0  0  0  0  0  0  0  0
    3.5067   -1.0731   -0.4966 C   0  0  0  0  0  0  0  0  0  0  0  0
    1.1038   -4.3268    0.8860 C   0  0  0  0  0  0  0  0  0  0  0  0
    0.0257   -4.8684   -0.0520 C   0  0  0  0  0  0  0  0  0  0  0  0
    3.5334   -0.1291    1.7369 C   0  0  0  0  0  0  0  0  0  0  0  0
    4.2293    0.0344   -0.9593 C   0  0  0  0  0  0  0  0  0  0  0  0
    4.2611    0.9647    1.2686 C   0  0  0  0  0  0  0  0  0  0  0  0
    4.6067    1.0475   -0.0784 C   0  0  0  0  0  0  0  0  0  0  0  0
   -2.1025   -3.5760    0.6061 C   0  0  0  0  0  0  0  0  0  0  0  0
   -2.8152   -2.6100   -0.0589 C   0  0  0  0  0  0  0  0  0  0  0  0
   -4.0271   -1.8973    0.3647 C   0  0  0  0  0  0  0  0  0  0  0  0
    4.2353    1.7841    3.5010 C   0  0  0  0  0  0  0  0  0  0  0  0
    6.7360    2.0055   -0.5296 C   0  0  0  0  0  0  0  0  0  0  0  0
   -4.6963    0.3689    0.6327 C   0  0  0  0  0  0  0  0  0  0  0  0
   -4.3947    1.7064    0.3760 C   0  0  0  0  0  0  0  0  0  0  0  0
   -6.0255   -0.0344    0.7599 C   0  0  0  0  0  0  0  0  0  0  0  0
   -5.4225    2.6405    0.2462 C   0  0  0  0  0  0  0  0  0  0  0  0
   -3.0140    2.1481    0.2382 C   0  0  0  0  0  0  0  0  0  0  0  0
   -7.0533    0.8997    0.6300 C   0  0  0  0  0  0  0  0  0  0  0  0
   -6.7518    2.2372    0.3732 C   0  0  0  0  0  0  0  0  0  0  0  0
   -0.9393    1.7891   -1.1771 C   0  0  0  0  0  0  0  0  0  0  0  0
   -0.1781    2.7360   -0.4921 C   0  0  0  0  0  0  0  0  0  0  0  0
    1.1429    2.9753   -0.8705 C   0  0  0  0  0  0  0  0  0  0  0  0
   -0.3794    1.0812   -2.2406 C   0  0  0  0  0  0  0  0  0  0  0  0
    1.7029    2.2675   -1.9341 C   0  0  0  0  0  0  0  0  0  0  0  0
    0.9417    1.3205   -2.6192 C   0  0  0  0  0  0  0  0  0  0  0  0
    1.9575    3.9879   -0.1386 C   0  0  0  0  0  0  0  0  0  0  0  0
    2.1694   -4.0738   -1.5176 H   0  0  0  0  0  0  0  0  0  0  0  0
    3.5021   -3.9706   -0.3698 H   0  0  0  0  0  0  0  0  0  0  0  0
    3.0998   -2.9863    1.9207 H   0  0  0  0  0  0  0  0  0  0  0  0
    1.6365   -1.9943    2.1043 H   0  0  0  0  0  0  0  0  0  0  0  0
    2.2401   -1.7505   -2.0580 H   0  0  0  0  0  0  0  0  0  0  0  0
    3.8931   -2.3845   -2.1459 H   0  0  0  0  0  0  0  0  0  0  0  0
    0.6274   -4.1040    1.8500 H   0  0  0  0  0  0  0  0  0  0  0  0
    1.8622   -5.0960    1.0779 H   0  0  0  0  0  0  0  0  0  0  0  0
   -0.4608   -5.7472    0.3866 H   0  0  0  0  0  0  0  0  0  0  0  0
    0.3814   -5.1403   -1.0498 H   0  0  0  0  0  0  0  0  0  0  0  0
    3.2414   -0.2511    2.7749 H   0  0  0  0  0  0  0  0  0  0  0  0
    4.4974    0.1061   -2.0109 H   0  0  0  0  0  0  0  0  0  0  0  0
   -2.2216   -4.0553    1.5674 H   0  0  0  0  0  0  0  0  0  0  0  0
   -4.7240   -1.9069   -0.4843 H   0  0  0  0  0  0  0  0  0  0  0  0
   -4.4902   -2.4169    1.2121 H   0  0  0  0  0  0  0  0  0  0  0  0
    4.6096    2.6551    4.0492 H   0  0  0  0  0  0  0  0  0  0  0  0
    4.6992    0.9012    3.9538 H   0  0  0  0  0  0  0  0  0  0  0  0
    3.1453    1.7863    3.6089 H   0  0  0  0  0  0  0  0  0  0  0  0
    7.1548    2.9347   -0.9255 H   0  0  0  0  0  0  0  0  0  0  0  0
    7.0653    1.1753   -1.1625 H   0  0  0  0  0  0  0  0  0  0  0  0
    7.0994    1.8656    0.4934 H   0  0  0  0  0  0  0  0  0  0  0  0
   -6.3085   -1.0572    0.9885 H   0  0  0  0  0  0  0  0  0  0  0  0
   -5.2021    3.6856    0.0441 H   0  0  0  0  0  0  0  0  0  0  0  0
   -8.0883    0.5876    0.7354 H   0  0  0  0  0  0  0  0  0  0  0  0
   -7.5520    2.9647    0.2732 H   0  0  0  0  0  0  0  0  0  0  0  0
   -2.7623    0.8440   -1.3514 H   0  0  0  0  0  0  0  0  0  0  0  0
   -0.5500    3.3169    0.3401 H   0  0  0  0  0  0  0  0  0  0  0  0
   -0.9611    0.3395   -2.7821 H   0  0  0  0  0  0  0  0  0  0  0  0
    2.7264    2.4514   -2.2485 H   0  0  0  0  0  0  0  0  0  0  0  0
    1.3775    0.7699   -3.4478 H   0  0  0  0  0  0  0  0  0  0  0  0
    2.9305    4.1500   -0.6142 H   0  0  0  0  0  0  0  0  0  0  0  0
    1.4386    4.9520   -0.1176 H   0  0  0  0  0  0  0  0  0  0  0  0
    2.1368    3.6565    0.8893 H   0  0  0  0  0  0  0  0  0  0  0  0
  1 19  1  0  0  0  0
  1 24  1  0  0  0  0
  2 20  1  0  0  0  0
  2 25  1  0  0  0  0
  3 23  1  0  0  0  0
  3 26  1  0  0  0  0
  4 30  2  0  0  0  0
  5 10  1  0  0  0  0
  5 11  1  0  0  0  0
  5 15  1  0  0  0  0
  6  7  1  0  0  0  0
  6 16  1  0  0  0  0
  6 21  1  0  0  0  0
  7  8  2  0  0  0  0
  8 22  1  0  0  0  0
  9 30  1  0  0  0  0
  9 33  1  0  0  0  0
  9 65  1  0  0  0  0
 10 12  1  0  0  0  0
 10 40  1  0  0  0  0
 10 41  1  0  0  0  0
 11 13  1  0  0  0  0
 11 42  1  0  0  0  0
 11 43  1  0  0  0  0
 12 14  1  0  0  0  0
 12 44  1  0  0  0  0
 12 45  1  0  0  0  0
 13 14  1  0  0  0  0
 13 17  2  0  0  0  0
 14 18  2  0  0  0  0
 15 16  1  0  0  0  0
 15 46  1  0  0  0  0
 15 47  1  0  0  0  0
 16 48  1  0  0  0  0
 16 49  1  0  0  0  0
 17 19  1  0  0  0  0
 17 50  1  0  0  0  0
 18 20  1  0  0  0  0
 18 51  1  0  0  0  0
 19 20  2  0  0  0  0
 21 22  2  0  0  0  0
 21 52  1  0  0  0  0
 22 23  1  0  0  0  0
 23 53  1  0  0  0  0
 23 54  1  0  0  0  0
 24 55  1  0  0  0  0
 24 56  1  0  0  0  0
 24 57  1  0  0  0  0
 25 58  1  0  0  0  0
 25 59  1  0  0  0  0
 25 60  1  0  0  0  0
 26 27  1  0  0  0  0
 26 28  2  0  0  0  0
 27 29  2  0  0  0  0
 27 30  1  0  0  0  0
 28 31  1  0  0  0  0
 28 61  1  0  0  0  0
 29 32  1  0  0  0  0
 29 62  1  0  0  0  0
 31 32  2  0  0  0  0
 31 63  1  0  0  0  0
 32 64  1  0  0  0  0
 33 34  1  0  0  0  0
 33 36  2  0  0  0  0
 34 35  2  0  0  0  0
 34 66  1  0  0  0  0
 35 37  1  0  0  0  0
 35 39  1  0  0  0  0
 36 38  1  0  0  0  0
 36 67  1  0  0  0  0
 37 38  2  0  0  0  0
 37 68  1  0  0  0  0
 38 69  1  0  0  0  0
 39 70  1  0  0  0  0
 39 71  1  0  0  0  0
 39 72  1  0  0  0  0
M  END
> <PUBCHEM_COMPOUND_CID>
137650393

> <PUBCHEM_CONFORMER_RMSD>
1.4

> <PUBCHEM_CONFORMER_DIVERSEORDER>
6
216
198
155
141
122
78
29
209
159
121
24
214
88
129
108
44
60
100
168
82
165
184
107
208
86
179
14
146
28
193
64
199
71
67
30
197
111
194
189
128
182
47
48
40
8
101
130
41
158
7
217
213
170
5
20
58
70
211
10
113
195
178
188
118
105
183
1
81
147
140
43
142
135
72
68
27
200
180
39
210
99
36
161
126
152
196
2
163
145
112
157
21
38
125
92
143
79
23
50
42
96
201
156
150
205
55
3
133
17
176
110
91
103
33
138
164
171
106
218
109
93
32
173
139
57
134
84
187
11
46
124
167
186
25
54
136
185
114
31
49
69
148
149
4
77
62
154
212
123
215
35
9
204
34
74
207
191
73
162
61
119
116
53
63
51
90
174
144
160
56
52
177
13
98
127
45
192
202
87
115
75
97
85
12
89
80
172
169
175
18
104
203
22
16
76
206
83
26
131
65
151
37
181
94
153
95
137
59
190
66
19
132
102
120
117
15
166

> <PUBCHEM_MMFF94_PARTIAL_CHARGES>
51
1 -0.36
10 0.27
11 0.41
12 0.14
13 -0.14
14 -0.14
15 0.27
16 0.26
17 -0.15
18 -0.15
19 0.08
2 -0.36
20 0.08
21 -0.3
22 0.05
23 0.46
24 0.28
25 0.28
26 0.08
27 0.09
28 -0.15
29 -0.15
3 -0.36
30 0.54
31 -0.15
32 -0.15
33 0.12
34 -0.15
35 -0.14
36 -0.15
37 -0.15
38 -0.15
39 0.14
4 -0.57
5 -0.81
50 0.15
51 0.15
52 0.15
6 0.31
61 0.15
62 0.15
63 0.15
64 0.15
65 0.37
66 0.15
67 0.15
68 0.15
69 0.15
7 -0.42
8 -0.23
9 -0.55

> <PUBCHEM_EFFECTIVE_ROTOR_COUNT>
11.8

> <PUBCHEM_PHARMACOPHORE_FEATURES>
11
1 1 acceptor
1 2 acceptor
1 3 acceptor
1 4 acceptor
1 5 cation
1 9 donor
5 6 7 8 21 22 rings
6 13 14 17 18 19 20 rings
6 26 27 28 29 31 32 rings
6 33 34 35 36 37 38 rings
6 5 10 11 12 13 14 rings

> <PUBCHEM_HEAVY_ATOM_COUNT>
39

> <PUBCHEM_ATOM_DEF_STEREO_COUNT>
0

> <PUBCHEM_ATOM_UDEF_STEREO_COUNT>
0

> <PUBCHEM_BOND_DEF_STEREO_COUNT>
0

> <PUBCHEM_BOND_UDEF_STEREO_COUNT>
0

> <PUBCHEM_ISOTOPIC_ATOM_COUNT>
0

> <PUBCHEM_COMPONENT_COUNT>
1

> <PUBCHEM_CACTVS_TAUTO_COUNT>
-1

> <PUBCHEM_CONFORMER_ID>
083460D900000006

> <PUBCHEM_MMFF94_ENERGY>
125.5996

> <PUBCHEM_FEATURE_SELFOVERLAP>
55.85

> <PUBCHEM_SHAPE_FINGERPRINT>
10439779 11 18263921206191707426
10816530 23 17203599419492416079
10864689 126 18338245886174766780
11513181 2 18202288004413701167
12422481 6 18041266682503619707
1361 2 18336832992052054881
14394314 77 18340215120359430505
14705955 166 17703795764666266424
14725015 67 17610334944496253651
14840074 17 18040434416641753093
15001296 14 18187937217417964733
15297060 5 18342186595719515986
15968369 153 17691972978209860283
16112460 7 18409728469389362023
20764821 26 18192684827117579982
22121540 332 17410770676990181104
23516275 137 18043275494938459344
3388396 114 16973360847207046471
3882209 13 17047367841096858079
5776283 40 18266762207384847518
9982175 49 17460884148719006028

> <PUBCHEM_SHAPE_MULTIPOLES>
754.22
13.98
6.27
2.03
12
5.92
0.55
-9.9
5.24
-0.69
-0.35
-2.71
-1.04
0.08

> <PUBCHEM_SHAPE_SELFOVERLAP>
1627.435

> <PUBCHEM_SHAPE_VOLUME>
414.6

> <PUBCHEM_COORDINATE_TYPE>
2
5
10

$$$$