132576658
  -OEChem-03242010103D

 81 85  0     1  0  0  0  0  0999 V2000
   -2.9540    3.9797   -1.2556 O   0  0  0  0  0  0  0  0  0  0  0  0
   -5.3533    3.1269   -0.1454 O   0  0  0  0  0  0  0  0  0  0  0  0
   -0.8533   -3.8022   -1.6592 O   0  0  0  0  0  0  0  0  0  0  0  0
    1.0895   -2.1967   -2.3982 O   0  0  0  0  0  0  0  0  0  0  0  0
   -0.5488   -0.1147    2.6030 N   0  0  1  0  0  0  0  0  0  0  0  0
    0.5625   -2.8133    2.3200 N   0  0  0  0  0  0  0  0  0  0  0  0
    1.6040   -3.4224    1.7303 N   0  0  0  0  0  0  0  0  0  0  0  0
    1.1300   -4.0891    0.6836 N   0  0  0  0  0  0  0  0  0  0  0  0
    0.7973   -0.0019   -1.6213 N   0  0  0  0  0  0  0  0  0  0  0  0
   -1.5867    0.0324    3.6309 C   0  0  0  0  0  0  0  0  0  0  0  0
   -0.4210    1.1311    1.8266 C   0  0  0  0  0  0  0  0  0  0  0  0
   -2.9572    0.1983    2.9666 C   0  0  0  0  0  0  0  0  0  0  0  0
   -1.7390    1.6370    1.2864 C   0  0  0  0  0  0  0  0  0  0  0  0
   -2.9524    1.2236    1.8629 C   0  0  0  0  0  0  0  0  0  0  0  0
    0.7341   -0.4715    3.2079 C   0  0  0  0  0  0  0  0  0  0  0  0
    0.7625   -1.9612    3.5480 C   0  0  0  0  0  0  0  0  0  0  0  0
   -1.7536    2.5748    0.2449 C   0  0  0  0  0  0  0  0  0  0  0  0
   -4.1624    1.7246    1.3655 C   0  0  0  0  0  0  0  0  0  0  0  0
   -2.9629    3.0750   -0.2371 C   0  0  0  0  0  0  0  0  0  0  0  0
   -4.1660    2.6486    0.3209 C   0  0  0  0  0  0  0  0  0  0  0  0
   -0.6043   -3.0721    1.6691 C   0  0  0  0  0  0  0  0  0  0  0  0
   -0.2210   -3.8849    0.6321 C   0  0  0  0  0  0  0  0  0  0  0  0
   -1.0442   -4.4924   -0.4214 C   0  0  0  0  0  0  0  0  0  0  0  0
   -1.6803    4.3634   -1.7702 C   0  0  0  0  0  0  0  0  0  0  0  0
   -6.5387    2.6395    0.4805 C   0  0  0  0  0  0  0  0  0  0  0  0
    6.1515    1.8556   -1.0349 C   0  0  0  0  0  0  0  0  0  0  0  0
    6.7153    1.5728    0.3660 C   0  0  0  0  0  0  0  0  0  0  0  0
    4.7501    1.3695   -1.1884 C   0  0  0  0  0  0  0  0  0  0  0  0
    8.1374    2.1104    0.5246 C   0  0  0  0  0  0  0  0  0  0  0  0
   -1.6473   -2.7112   -1.8771 C   0  0  0  0  0  0  0  0  0  0  0  0
    3.6819    2.2111   -0.8782 C   0  0  0  0  0  0  0  0  0  0  0  0
    4.5074    0.0729   -1.6422 C   0  0  0  0  0  0  0  0  0  0  0  0
    2.1286    0.4599   -1.4756 C   0  0  0  0  0  0  0  0  0  0  0  0
    8.6740    1.8627    1.9255 C   0  0  0  0  0  0  0  0  0  0  0  0
   -1.0897   -1.4484   -2.0768 C   0  0  0  0  0  0  0  0  0  0  0  0
    2.3712    1.7563   -1.0218 C   0  0  0  0  0  0  0  0  0  0  0  0
    3.1967   -0.3819   -1.7858 C   0  0  0  0  0  0  0  0  0  0  0  0
    0.3539   -1.2572   -2.0578 C   0  0  0  0  0  0  0  0  0  0  0  0
   -3.0325   -2.8735   -1.9006 C   0  0  0  0  0  0  0  0  0  0  0  0
   -1.9170   -0.3480   -2.3001 C   0  0  0  0  0  0  0  0  0  0  0  0
   -3.8601   -1.7730   -2.1239 C   0  0  0  0  0  0  0  0  0  0  0  0
   -3.3024   -0.5103   -2.3238 C   0  0  0  0  0  0  0  0  0  0  0  0
   -1.3749    0.8970    4.2750 H   0  0  0  0  0  0  0  0  0  0  0  0
   -1.6441   -0.8446    4.2840 H   0  0  0  0  0  0  0  0  0  0  0  0
    0.2509    0.9428    0.9851 H   0  0  0  0  0  0  0  0  0  0  0  0
    0.0195    1.9275    2.4414 H   0  0  0  0  0  0  0  0  0  0  0  0
   -3.6877    0.4818    3.7337 H   0  0  0  0  0  0  0  0  0  0  0  0
   -3.2760   -0.7607    2.5387 H   0  0  0  0  0  0  0  0  0  0  0  0
    0.9486    0.1305    4.0995 H   0  0  0  0  0  0  0  0  0  0  0  0
    1.5480   -0.2844    2.4943 H   0  0  0  0  0  0  0  0  0  0  0  0
   -0.0109   -2.2761    4.2548 H   0  0  0  0  0  0  0  0  0  0  0  0
    1.7384   -2.2499    3.9542 H   0  0  0  0  0  0  0  0  0  0  0  0
   -0.7874    2.8760   -0.1444 H   0  0  0  0  0  0  0  0  0  0  0  0
   -5.0663    1.3516    1.8359 H   0  0  0  0  0  0  0  0  0  0  0  0
   -1.5635   -2.6897    1.9864 H   0  0  0  0  0  0  0  0  0  0  0  0
   -0.7183   -5.5263   -0.5830 H   0  0  0  0  0  0  0  0  0  0  0  0
   -2.0974   -4.5475   -0.1242 H   0  0  0  0  0  0  0  0  0  0  0  0
   -1.8618    5.0845   -2.5739 H   0  0  0  0  0  0  0  0  0  0  0  0
   -1.1534    3.5142   -2.2192 H   0  0  0  0  0  0  0  0  0  0  0  0
   -1.0768    4.8766   -1.0137 H   0  0  0  0  0  0  0  0  0  0  0  0
   -7.3865    3.1254   -0.0137 H   0  0  0  0  0  0  0  0  0  0  0  0
   -6.5833    2.9226    1.5377 H   0  0  0  0  0  0  0  0  0  0  0  0
   -6.6601    1.5612    0.3307 H   0  0  0  0  0  0  0  0  0  0  0  0
    6.7923    1.3877   -1.7935 H   0  0  0  0  0  0  0  0  0  0  0  0
    6.1921    2.9332   -1.2407 H   0  0  0  0  0  0  0  0  0  0  0  0
    6.7076    0.4922    0.5575 H   0  0  0  0  0  0  0  0  0  0  0  0
    6.0662    2.0308    1.1234 H   0  0  0  0  0  0  0  0  0  0  0  0
    8.7991    1.6315   -0.2063 H   0  0  0  0  0  0  0  0  0  0  0  0
    8.1530    3.1873    0.3203 H   0  0  0  0  0  0  0  0  0  0  0  0
    3.8577    3.2229   -0.5225 H   0  0  0  0  0  0  0  0  0  0  0  0
    5.3321   -0.5924   -1.8847 H   0  0  0  0  0  0  0  0  0  0  0  0
    8.6996    0.7920    2.1518 H   0  0  0  0  0  0  0  0  0  0  0  0
    8.0518    2.3584    2.6775 H   0  0  0  0  0  0  0  0  0  0  0  0
    9.6923    2.2536    2.0159 H   0  0  0  0  0  0  0  0  0  0  0  0
    1.5502    2.4251   -0.7795 H   0  0  0  0  0  0  0  0  0  0  0  0
    3.0895   -1.3970   -2.1405 H   0  0  0  0  0  0  0  0  0  0  0  0
    0.1016    0.6789   -1.3301 H   0  0  0  0  0  0  0  0  0  0  0  0
   -3.4860   -3.8522   -1.7699 H   0  0  0  0  0  0  0  0  0  0  0  0
   -1.5289    0.6461   -2.5015 H   0  0  0  0  0  0  0  0  0  0  0  0
   -4.9384   -1.9001   -2.1488 H   0  0  0  0  0  0  0  0  0  0  0  0
   -3.9467    0.3448   -2.5067 H   0  0  0  0  0  0  0  0  0  0  0  0
  1 19  1  0  0  0  0
  1 24  1  0  0  0  0
  2 20  1  0  0  0  0
  2 25  1  0  0  0  0
  3 23  1  0  0  0  0
  3 30  1  0  0  0  0
  4 38  2  0  0  0  0
  5 10  1  0  0  0  0
  5 11  1  0  0  0  0
  5 15  1  0  0  0  0
  6  7  1  0  0  0  0
  6 16  1  0  0  0  0
  6 21  1  0  0  0  0
  7  8  2  0  0  0  0
  8 22  1  0  0  0  0
  9 33  1  0  0  0  0
  9 38  1  0  0  0  0
  9 77  1  0  0  0  0
 10 12  1  0  0  0  0
 10 43  1  0  0  0  0
 10 44  1  0  0  0  0
 11 13  1  0  0  0  0
 11 45  1  0  0  0  0
 11 46  1  0  0  0  0
 12 14  1  0  0  0  0
 12 47  1  0  0  0  0
 12 48  1  0  0  0  0
 13 14  1  0  0  0  0
 13 17  2  0  0  0  0
 14 18  2  0  0  0  0
 15 16  1  0  0  0  0
 15 49  1  0  0  0  0
 15 50  1  0  0  0  0
 16 51  1  0  0  0  0
 16 52  1  0  0  0  0
 17 19  1  0  0  0  0
 17 53  1  0  0  0  0
 18 20  1  0  0  0  0
 18 54  1  0  0  0  0
 19 20  2  0  0  0  0
 21 22  2  0  0  0  0
 21 55  1  0  0  0  0
 22 23  1  0  0  0  0
 23 56  1  0  0  0  0
 23 57  1  0  0  0  0
 24 58  1  0  0  0  0
 24 59  1  0  0  0  0
 24 60  1  0  0  0  0
 25 61  1  0  0  0  0
 25 62  1  0  0  0  0
 25 63  1  0  0  0  0
 26 27  1  0  0  0  0
 26 28  1  0  0  0  0
 26 64  1  0  0  0  0
 26 65  1  0  0  0  0
 27 29  1  0  0  0  0
 27 66  1  0  0  0  0
 27 67  1  0  0  0  0
 28 31  2  0  0  0  0
 28 32  1  0  0  0  0
 29 34  1  0  0  0  0
 29 68  1  0  0  0  0
 29 69  1  0  0  0  0
 30 35  1  0  0  0  0
 30 39  2  0  0  0  0
 31 36  1  0  0  0  0
 31 70  1  0  0  0  0
 32 37  2  0  0  0  0
 32 71  1  0  0  0  0
 33 36  2  0  0  0  0
 33 37  1  0  0  0  0
 34 72  1  0  0  0  0
 34 73  1  0  0  0  0
 34 74  1  0  0  0  0
 35 38  1  0  0  0  0
 35 40  2  0  0  0  0
 36 75  1  0  0  0  0
 37 76  1  0  0  0  0
 39 41  1  0  0  0  0
 39 78  1  0  0  0  0
 40 42  1  0  0  0  0
 40 79  1  0  0  0  0
 41 42  2  0  0  0  0
 41 80  1  0  0  0  0
 42 81  1  0  0  0  0
M  END
> <PUBCHEM_COMPOUND_CID>
132576658

> <PUBCHEM_CONFORMER_RMSD>
1.4

> <PUBCHEM_CONFORMER_DIVERSEORDER>
17
123
125
73
59
134
3
11
112
7
114
22
53
122
77
103
50
66
67
117
14
61
55
106
81
69
88
21
127
64
56
115
131
95
75
100
2
19
119
51
58
101
71
84
4
47
23
128
18
135
126
54
28
111
92
76
118
20
129
110
60
38
133
5
52
10
74
35
8
121
34
29
68
83
9
120
25
116
97
16
65
12
79
41
93
113
104
99
132
86
108
89
87
90
63
107
1
91
32
130
72
6
102
15
40
94
37
24
42
82
36
124
70
57
98
78
30
39
33
46
96
31
85
45
109
27
80
105
49
48
44
43
13
62
26

> <PUBCHEM_MMFF94_PARTIAL_CHARGES>
51
1 -0.36
10 0.27
11 0.41
12 0.14
13 -0.14
14 -0.14
15 0.27
16 0.26
17 -0.15
18 -0.15
19 0.08
2 -0.36
20 0.08
21 -0.3
22 0.05
23 0.46
24 0.28
25 0.28
26 0.14
28 -0.14
3 -0.36
30 0.08
31 -0.15
32 -0.15
33 0.12
35 0.09
36 -0.15
37 -0.15
38 0.54
39 -0.15
4 -0.57
40 -0.15
41 -0.15
42 -0.15
5 -0.81
53 0.15
54 0.15
55 0.15
6 0.31
7 -0.42
70 0.15
71 0.15
75 0.15
76 0.15
77 0.37
78 0.15
79 0.15
8 -0.23
80 0.15
81 0.15
9 -0.55

> <PUBCHEM_EFFECTIVE_ROTOR_COUNT>
14.8

> <PUBCHEM_PHARMACOPHORE_FEATURES>
12
1 1 acceptor
1 2 acceptor
1 3 acceptor
1 34 hydrophobe
1 4 acceptor
1 5 cation
1 9 donor
5 6 7 8 21 22 rings
6 13 14 17 18 19 20 rings
6 28 31 32 33 36 37 rings
6 30 35 39 40 41 42 rings
6 5 10 11 12 13 14 rings

> <PUBCHEM_HEAVY_ATOM_COUNT>
42

> <PUBCHEM_ATOM_DEF_STEREO_COUNT>
0

> <PUBCHEM_ATOM_UDEF_STEREO_COUNT>
0

> <PUBCHEM_BOND_DEF_STEREO_COUNT>
0

> <PUBCHEM_BOND_UDEF_STEREO_COUNT>
0

> <PUBCHEM_ISOTOPIC_ATOM_COUNT>
0

> <PUBCHEM_COMPONENT_COUNT>
1

> <PUBCHEM_CACTVS_TAUTO_COUNT>
102

> <PUBCHEM_CONFORMER_ID>
07E6F59200000011

> <PUBCHEM_MMFF94_ENERGY>
124.59

> <PUBCHEM_FEATURE_SELFOVERLAP>
60.934

> <PUBCHEM_SHAPE_FINGERPRINT>
11582403 64 18191037724059429605
12156800 1 17845635019670353619
13165054 342 18272080613246047811
14400156 162 17168685489310690724
15274700 242 18259978301527961696
15513586 35 17550970503927716688
15975801 100 18340477890136135097
20587220 17 17751638754655225093
21304303 282 18410857711018735426
3493558 16 16339499613587338734
35225 105 17758443807754201823
4112364 45 18191874426759923521
469060 322 18268168602661779557
5080951 261 18059300980108216184

> <PUBCHEM_SHAPE_MULTIPOLES>
815.96
13.06
5.95
3.89
32.2
2.77
-2.65
-16.53
-0.99
-5.54
0.87
-1.15
1.83
-1.4

> <PUBCHEM_SHAPE_SELFOVERLAP>
1744.495

> <PUBCHEM_SHAPE_VOLUME>
451.8

> <PUBCHEM_COORDINATE_TYPE>
2
5
10

$$$$