137636359
  -OEChem-03242010103D

 44 47  0     0  0  0  0  0  0999 V2000
    4.0044    2.1545   -0.9550 F   0  0  0  0  0  0  0  0  0  0  0  0
    4.5025    0.5183   -2.2884 F   0  0  0  0  0  0  0  0  0  0  0  0
    2.4752    1.3031   -2.2451 F   0  0  0  0  0  0  0  0  0  0  0  0
    5.3955   -0.0263    0.4732 O   0  0  0  0  0  0  0  0  0  0  0  0
    0.1535   -1.8463    0.7511 N   0  0  0  0  0  0  0  0  0  0  0  0
   -1.1668    0.0876    0.5209 N   0  0  0  0  0  0  0  0  0  0  0  0
   -3.4518   -0.0661   -0.2286 N   0  0  0  0  0  0  0  0  0  0  0  0
   -2.7401    4.8133    0.4903 N   0  0  0  0  0  0  0  0  0  0  0  0
   -2.1393   -2.0610   -0.0080 C   0  0  0  0  0  0  0  0  0  0  0  0
   -1.0871   -1.2519    0.4115 C   0  0  0  0  0  0  0  0  0  0  0  0
    1.4771   -1.3841    0.6769 C   0  0  0  0  0  0  0  0  0  0  0  0
   -3.3380   -1.4022   -0.3267 C   0  0  0  0  0  0  0  0  0  0  0  0
    3.1566   -0.0078   -0.3823 C   0  0  0  0  0  0  0  0  0  0  0  0
    1.8419   -0.4678   -0.3094 C   0  0  0  0  0  0  0  0  0  0  0  0
   -2.3603    0.6061    0.1898 C   0  0  0  0  0  0  0  0  0  0  0  0
    2.4275   -1.8408    1.5902 C   0  0  0  0  0  0  0  0  0  0  0  0
    4.1068   -0.4645    0.5311 C   0  0  0  0  0  0  0  0  0  0  0  0
   -2.0317   -3.4586   -0.1143 C   0  0  0  0  0  0  0  0  0  0  0  0
    3.7422   -1.3810    1.5174 C   0  0  0  0  0  0  0  0  0  0  0  0
   -4.4136   -2.1788   -0.7505 C   0  0  0  0  0  0  0  0  0  0  0  0
   -2.4899    2.0363    0.2919 C   0  0  0  0  0  0  0  0  0  0  0  0
   -3.1224   -4.2099   -0.5404 C   0  0  0  0  0  0  0  0  0  0  0  0
    3.5296    0.9722   -1.4452 C   0  0  0  0  0  0  0  0  0  0  0  0
   -4.3146   -3.5690   -0.8588 C   0  0  0  0  0  0  0  0  0  0  0  0
   -3.7232    2.6068    0.5872 C   0  0  0  0  0  0  0  0  0  0  0  0
   -1.3816    2.8528    0.0958 C   0  0  0  0  0  0  0  0  0  0  0  0
   -3.7947    3.9877    0.6745 C   0  0  0  0  0  0  0  0  0  0  0  0
   -1.5579    4.2228    0.2051 C   0  0  0  0  0  0  0  0  0  0  0  0
    6.3004   -0.5451    1.4460 C   0  0  0  0  0  0  0  0  0  0  0  0
    0.0486   -2.6711    1.3357 H   0  0  0  0  0  0  0  0  0  0  0  0
    1.1064   -0.1216   -1.0309 H   0  0  0  0  0  0  0  0  0  0  0  0
    2.1555   -2.5544    2.3641 H   0  0  0  0  0  0  0  0  0  0  0  0
   -1.1127   -3.9891    0.1186 H   0  0  0  0  0  0  0  0  0  0  0  0
    4.4247   -1.7796    2.2600 H   0  0  0  0  0  0  0  0  0  0  0  0
   -5.3578   -1.7014   -1.0058 H   0  0  0  0  0  0  0  0  0  0  0  0
   -3.0430   -5.2894   -0.6257 H   0  0  0  0  0  0  0  0  0  0  0  0
   -5.1708   -4.1481   -1.1927 H   0  0  0  0  0  0  0  0  0  0  0  0
   -4.6171    2.0158    0.7585 H   0  0  0  0  0  0  0  0  0  0  0  0
   -0.3989    2.4604   -0.1458 H   0  0  0  0  0  0  0  0  0  0  0  0
   -4.7328    4.4820    0.9046 H   0  0  0  0  0  0  0  0  0  0  0  0
   -0.7256    4.9034    0.0589 H   0  0  0  0  0  0  0  0  0  0  0  0
    7.2772   -0.0897    1.2519 H   0  0  0  0  0  0  0  0  0  0  0  0
    6.4290   -1.6278    1.3414 H   0  0  0  0  0  0  0  0  0  0  0  0
    6.0116   -0.2546    2.4619 H   0  0  0  0  0  0  0  0  0  0  0  0
  1 23  1  0  0  0  0
  2 23  1  0  0  0  0
  3 23  1  0  0  0  0
  4 17  1  0  0  0  0
  4 29  1  0  0  0  0
  5 10  1  0  0  0  0
  5 11  1  0  0  0  0
  5 30  1  0  0  0  0
  6 10  2  0  0  0  0
  6 15  1  0  0  0  0
  7 12  1  0  0  0  0
  7 15  2  0  0  0  0
  8 27  2  0  0  0  0
  8 28  1  0  0  0  0
  9 10  1  0  0  0  0
  9 12  1  0  0  0  0
  9 18  2  0  0  0  0
 11 14  2  0  0  0  0
 11 16  1  0  0  0  0
 12 20  2  0  0  0  0
 13 14  1  0  0  0  0
 13 17  2  0  0  0  0
 13 23  1  0  0  0  0
 14 31  1  0  0  0  0
 15 21  1  0  0  0  0
 16 19  2  0  0  0  0
 16 32  1  0  0  0  0
 17 19  1  0  0  0  0
 18 22  1  0  0  0  0
 18 33  1  0  0  0  0
 19 34  1  0  0  0  0
 20 24  1  0  0  0  0
 20 35  1  0  0  0  0
 21 25  2  0  0  0  0
 21 26  1  0  0  0  0
 22 24  2  0  0  0  0
 22 36  1  0  0  0  0
 24 37  1  0  0  0  0
 25 27  1  0  0  0  0
 25 38  1  0  0  0  0
 26 28  2  0  0  0  0
 26 39  1  0  0  0  0
 27 40  1  0  0  0  0
 28 41  1  0  0  0  0
 29 42  1  0  0  0  0
 29 43  1  0  0  0  0
 29 44  1  0  0  0  0
M  END
> <PUBCHEM_COMPOUND_CID>
137636359

> <PUBCHEM_CONFORMER_RMSD>
0.8

> <PUBCHEM_CONFORMER_DIVERSEORDER>
1
29
14
24
4
17
8
23
13
2
20
5
12
7
9
21
3
30
25
19
26
10
22
11
15
18
28
27
16
6

> <PUBCHEM_MMFF94_PARTIAL_CHARGES>
39
1 -0.34
10 0.41
11 0.1
12 0.31
13 -0.14
14 -0.15
15 0.62
16 -0.15
17 0.08
18 -0.15
19 -0.15
2 -0.34
20 -0.15
22 -0.15
23 1.16
24 -0.15
25 -0.15
26 -0.15
27 0.16
28 0.16
29 0.28
3 -0.34
30 0.4
31 0.15
32 0.15
33 0.15
34 0.15
35 0.15
36 0.15
37 0.15
38 0.15
39 0.15
4 -0.36
40 0.15
41 0.15
5 -0.6
6 -0.62
7 -0.62
8 -0.62

> <PUBCHEM_EFFECTIVE_ROTOR_COUNT>
5

> <PUBCHEM_PHARMACOPHORE_FEATURES>
9
1 4 acceptor
1 5 donor
1 8 acceptor
3 5 6 10 cation
3 6 7 15 cation
6 11 13 14 16 17 19 rings
6 6 7 9 10 12 15 rings
6 8 21 25 26 27 28 rings
6 9 12 18 20 22 24 rings

> <PUBCHEM_HEAVY_ATOM_COUNT>
29

> <PUBCHEM_ATOM_DEF_STEREO_COUNT>
0

> <PUBCHEM_ATOM_UDEF_STEREO_COUNT>
0

> <PUBCHEM_BOND_DEF_STEREO_COUNT>
0

> <PUBCHEM_BOND_UDEF_STEREO_COUNT>
0

> <PUBCHEM_ISOTOPIC_ATOM_COUNT>
0

> <PUBCHEM_COMPONENT_COUNT>
1

> <PUBCHEM_CACTVS_TAUTO_COUNT>
-1

> <PUBCHEM_CONFORMER_ID>
08342A0700000001

> <PUBCHEM_MMFF94_ENERGY>
104.6411

> <PUBCHEM_FEATURE_SELFOVERLAP>
45.844

> <PUBCHEM_SHAPE_FINGERPRINT>
10411042 1 18196081369155365891
10937287 8 17908983210659241529
10940486 97 18194122906954798486
1100329 8 18411417358848667969
11049842 53 18051430482471763494
12107183 9 17832409918182301994
12166972 35 17750504247311797502
12173636 292 18268705005422116527
12403260 363 18334852857694437866
12553582 1 18267869561327246275
12788726 201 18337116751941187491
12978246 48 18118972390396333321
13009979 54 18260826033762363538
13617811 41 18199747119410787287
138480 1 16179321488874593897
13965767 371 17755579343882776336
14294032 229 18342186514294589377
14395042 24 18334016082502441833
14790565 3 18269000782994143337
14910302 57 17845949484243496510
15297060 5 17913207551043690712
15419009 47 18052273803938354326
15420108 30 17974838476663311690
15664445 248 17691679404510685121
15842332 3 18187080620466392778
15961568 22 17981031235489214632
15968369 26 17183327955913714317
16992727 255 18192124059761731797
17818456 19 18265326214526986786
20101258 96 18339081609421893043
20642791 35 18196376042544802553
21033650 10 18337974328319681634
21049683 271 17755301520193042871
21133410 90 18122315082339196149
2132832 1 18188478190192407332
23557571 272 18131628985034126066
23558518 356 18263643970406195035
23559900 14 17977930612651393667
25147074 1 18113621183921334694
340366 18 17905329533214491922
3610482 184 17827117049704811828
38570 142 17389140830696970372
463206 1 18046911755811326763
532947 4 17331117711949843825
5895379 119 18409735041359205310
6287921 2 17402618442129960261
6523845 18 17552952557976809697
6700243 42 17914924116428123262
7164475 11 18411138060734931494
7471813 234 18264197192294958014
7808743 9 18268421343874717936
9981440 41 18050290271950077505

> <PUBCHEM_SHAPE_MULTIPOLES>
549.19
11.13
5.88
1.37
13.7
3.71
-0.53
-1.01
0.13
-11.38
0.19
2.12
0.11
-3.24

> <PUBCHEM_SHAPE_SELFOVERLAP>
1224.992

> <PUBCHEM_SHAPE_VOLUME>
291.8

> <PUBCHEM_COORDINATE_TYPE>
2
5
10

$$$$