172
 OpenBabel03292022023D

 54 57  0  0  1  0  0  0  0  0999 V2000
    1.3892    1.5763    1.7908 C   0  0  0  0  0  0  0  0  0  0  0  0
    2.5990    1.1091    0.9956 C   0  0  0  0  0  0  0  0  0  0  0  0
    3.6758    0.4328    1.8557 C   0  0  2  0  0  0  0  0  0  0  0  0
    4.1927    1.2222    3.1399 C   0  0  0  0  0  0  0  0  0  0  0  0
    5.5522    1.8569    3.1919 N   0  0  0  0  0  0  0  0  0  0  0  0
    5.4646    3.3208    3.2491 C   0  0  0  0  0  0  0  0  0  0  0  0
    6.5534    1.4129    2.1571 C   0  0  1  0  0  0  0  0  0  0  0  0
    7.3925    0.1938    2.6938 C   0  0  0  0  0  0  0  0  0  0  0  0
    7.4663   -1.2287    2.1092 C   0  0  0  0  0  0  0  0  0  0  0  0
    7.1668   -1.8005    0.8616 C   0  0  0  0  0  0  0  0  0  0  0  0
    7.6891   -3.0787    0.8744 N   0  0  0  0  0  0  0  0  0  0  0  0
    7.8774   -3.5025    2.1593 C   0  0  0  0  0  0  0  0  0  0  0  0
    8.1090   -4.7897    2.6573 C   0  0  0  0  0  0  0  0  0  0  0  0
    8.2176   -4.9360    4.0405 C   0  0  0  0  0  0  0  0  0  0  0  0
    8.1460   -3.8285    4.8797 C   0  0  0  0  0  0  0  0  0  0  0  0
    7.9579   -2.5421    4.3539 C   0  0  0  0  0  0  0  0  0  0  0  0
    7.7869   -2.3698    2.9606 C   0  0  0  0  0  0  0  0  0  0  0  0
    6.4099   -1.3940   -0.3161 C   0  0  0  0  0  0  0  0  0  0  0  0
    6.9865   -1.6114   -1.4622 N   0  0  0  0  0  0  0  0  0  0  0  0
    6.1939   -1.2114   -2.5452 O   0  0  0  0  0  0  0  0  0  0  0  0
    4.9488   -0.9089   -0.1322 C   0  0  0  0  0  0  0  0  0  0  0  0
    4.9149    0.0267    1.0517 C   0  0  1  0  0  0  0  0  0  0  0  0
    5.7716    1.2785    0.8694 C   0  0  2  0  0  0  0  0  0  0  0  0
    6.4338    1.7430   -0.4288 C   0  0  0  0  0  0  0  0  0  0  0  0
    6.2984    1.2429   -1.5333 O   0  0  0  0  0  0  0  0  0  0  0  0
    6.8923    3.0230   -0.2349 O   0  0  0  0  0  0  0  0  0  0  0  0
    6.6509    3.8912   -1.3451 C   0  0  0  0  0  0  0  0  0  0  0  0
    0.5479    1.7672    1.1171 H   0  0  0  0  0  0  0  0  0  0  0  0
    1.6046    2.5104    2.3180 H   0  0  0  0  0  0  0  0  0  0  0  0
    1.0746    0.8260    2.5230 H   0  0  0  0  0  0  0  0  0  0  0  0
    2.9935    1.9529    0.4224 H   0  0  0  0  0  0  0  0  0  0  0  0
    2.2533    0.3732    0.2574 H   0  0  0  0  0  0  0  0  0  0  0  0
    3.2125   -0.4890    2.2406 H   0  0  0  0  0  0  0  0  0  0  0  0
    4.2207    0.4802    3.9493 H   0  0  0  0  0  0  0  0  0  0  0  0
    3.4334    1.9406    3.4669 H   0  0  0  0  0  0  0  0  0  0  0  0
    4.8838    3.6398    4.1205 H   0  0  0  0  0  0  0  0  0  0  0  0
    5.0077    3.7505    2.3515 H   0  0  0  0  0  0  0  0  0  0  0  0
    6.4600    3.7660    3.3698 H   0  0  0  0  0  0  0  0  0  0  0  0
    7.2995    2.2118    2.0519 H   0  0  0  0  0  0  0  0  0  0  0  0
    7.1076    0.0695    3.7490 H   0  0  0  0  0  0  0  0  0  0  0  0
    8.4385    0.5319    2.7489 H   0  0  0  0  0  0  0  0  0  0  0  0
    7.6899   -3.6809    0.0621 H   0  0  0  0  0  0  0  0  0  0  0  0
    8.1672   -5.6515    2.0001 H   0  0  0  0  0  0  0  0  0  0  0  0
    8.3539   -5.9283    4.4644 H   0  0  0  0  0  0  0  0  0  0  0  0
    8.2214   -3.9632    5.9558 H   0  0  0  0  0  0  0  0  0  0  0  0
    7.8832   -1.6966    5.0310 H   0  0  0  0  0  0  0  0  0  0  0  0
    6.3750   -0.2448   -2.5968 H   0  0  0  0  0  0  0  0  0  0  0  0
    4.3420   -1.7998    0.0712 H   0  0  0  0  0  0  0  0  0  0  0  0
    4.5393   -0.4409   -1.0290 H   0  0  0  0  0  0  0  0  0  0  0  0
    5.3153   -0.6141    1.8333 H   0  0  0  0  0  0  0  0  0  0  0  0
    5.0372    2.1001    0.8651 H   0  0  0  0  0  0  0  0  0  0  0  0
    6.8362    4.9178   -1.0153 H   0  0  0  0  0  0  0  0  0  0  0  0
    5.6002    3.8300   -1.6543 H   0  0  0  0  0  0  0  0  0  0  0  0
    7.3148    3.6562   -2.1797 H   0  0  0  0  0  0  0  0  0  0  0  0
  1  2  1  0  0  0  0
  1 28  1  0  0  0  0
  1 29  1  0  0  0  0
  1 30  1  0  0  0  0
  2  3  1  0  0  0  0
  2 31  1  0  0  0  0
  2 32  1  0  0  0  0
  3  4  1  0  0  0  0
  3 22  1  0  0  0  0
  3 33  1  1  0  0  0
  4  5  1  0  0  0  0
  4 34  1  0  0  0  0
  4 35  1  0  0  0  0
  5  6  1  0  0  0  0
  5  7  1  0  0  0  0
  6 36  1  0  0  0  0
  6 37  1  0  0  0  0
  6 38  1  0  0  0  0
  7  8  1  0  0  0  0
  7 23  1  0  0  0  0
  7 39  1  6  0  0  0
  8  9  1  0  0  0  0
  8 40  1  0  0  0  0
  8 41  1  0  0  0  0
  9 10  2  0  0  0  0
  9 17  1  0  0  0  0
 10 11  1  0  0  0  0
 10 18  1  0  0  0  0
 11 12  1  0  0  0  0
 11 42  1  0  0  0  0
 12 13  1  0  0  0  0
 12 17  2  0  0  0  0
 13 14  2  0  0  0  0
 13 43  1  0  0  0  0
 14 15  1  0  0  0  0
 14 44  1  0  0  0  0
 15 16  2  0  0  0  0
 15 45  1  0  0  0  0
 16 17  1  0  0  0  0
 16 46  1  0  0  0  0
 18 19  2  0  0  0  0
 18 21  1  0  0  0  0
 19 20  1  0  0  0  0
 20 47  1  0  0  0  0
 21 22  1  0  0  0  0
 21 48  1  0  0  0  0
 21 49  1  0  0  0  0
 22 23  1  0  0  0  0
 22 50  1  1  0  0  0
 23 24  1  0  0  0  0
 23 51  1  1  0  0  0
 24 25  2  0  0  0  0
 24 26  1  0  0  0  0
 26 27  1  0  0  0  0
 27 52  1  0  0  0  0
 27 53  1  0  0  0  0
 27 54  1  0  0  0  0
M  END
>  <Energy>
152.514

$$$$