44285975
  -OEChem-03242010103D

 59 60  0     1  0  0  0  0  0999 V2000
    2.9286   -0.7440    0.6694 O   0  0  0  0  0  0  0  0  0  0  0  0
   -1.1336    0.3155   -1.3066 O   0  0  0  0  0  0  0  0  0  0  0  0
    3.0193    2.7592   -0.8037 O   0  0  0  0  0  0  0  0  0  0  0  0
    4.9274   -0.8583    1.9820 O   0  0  0  0  0  0  0  0  0  0  0  0
   -1.2880   -0.6339   -3.3799 O   0  0  0  0  0  0  0  0  0  0  0  0
    1.4234    1.6608    0.4478 O   0  0  0  0  0  0  0  0  0  0  0  0
    0.3143   -1.3941   -1.8749 N   0  0  0  0  0  0  0  0  0  0  0  0
    0.9145   -1.2812   -0.5604 C   0  0  2  0  0  0  0  0  0  0  0  0
    2.3926   -0.8371   -0.6560 C   0  0  1  0  0  0  0  0  0  0  0  0
    0.6894   -2.5918    0.2146 C   0  0  0  0  0  0  0  0  0  0  0  0
    2.6115    0.5146   -1.3464 C   0  0  0  0  0  0  0  0  0  0  0  0
   -0.7269   -2.7850    0.6954 C   0  0  0  0  0  0  0  0  0  0  0  0
    0.8798   -2.4125   -2.7591 C   0  0  0  0  0  0  0  0  0  0  0  0
   -0.7490   -0.5731   -2.2762 C   0  0  0  0  0  0  0  0  0  0  0  0
    2.2562    1.6827   -0.4479 C   0  0  0  0  0  0  0  0  0  0  0  0
   -1.1080   -2.3106    1.9504 C   0  0  0  0  0  0  0  0  0  0  0  0
   -1.6557   -3.4380   -0.1148 C   0  0  0  0  0  0  0  0  0  0  0  0
    4.3429   -0.9030    0.6805 C   0  0  0  0  0  0  0  0  0  0  0  0
   -2.4179   -2.4891    2.3955 C   0  0  0  0  0  0  0  0  0  0  0  0
   -2.9656   -3.6166    0.3301 C   0  0  0  0  0  0  0  0  0  0  0  0
   -3.3467   -3.1422    1.5852 C   0  0  0  0  0  0  0  0  0  0  0  0
   -2.2163    1.1899   -1.6449 C   0  0  0  0  0  0  0  0  0  0  0  0
   -2.5033    2.0885   -0.4778 C   0  0  0  0  0  0  0  0  0  0  0  0
    2.7993    3.9498   -0.0405 C   0  0  0  0  0  0  0  0  0  0  0  0
    4.7308    0.3982    2.6171 C   0  0  0  0  0  0  0  0  0  0  0  0
   -3.4243    1.6965    0.4937 C   0  0  0  0  0  0  0  0  0  0  0  0
   -1.8494    3.3151   -0.3643 C   0  0  0  0  0  0  0  0  0  0  0  0
   -3.6914    2.5315    1.5788 C   0  0  0  0  0  0  0  0  0  0  0  0
   -2.1163    4.1500    0.7207 C   0  0  0  0  0  0  0  0  0  0  0  0
   -3.0375    3.7582    1.6922 C   0  0  0  0  0  0  0  0  0  0  0  0
    0.4018   -0.5139    0.0265 H   0  0  0  0  0  0  0  0  0  0  0  0
    2.9501   -1.6072   -1.2019 H   0  0  0  0  0  0  0  0  0  0  0  0
    1.0234   -3.4805   -0.3306 H   0  0  0  0  0  0  0  0  0  0  0  0
    1.3268   -2.5903    1.1096 H   0  0  0  0  0  0  0  0  0  0  0  0
    3.6712    0.6086   -1.6115 H   0  0  0  0  0  0  0  0  0  0  0  0
    2.0418    0.5992   -2.2766 H   0  0  0  0  0  0  0  0  0  0  0  0
    0.7273   -3.4149   -2.3579 H   0  0  0  0  0  0  0  0  0  0  0  0
    0.3806   -2.3771   -3.7324 H   0  0  0  0  0  0  0  0  0  0  0  0
    1.9409   -2.2270   -2.9342 H   0  0  0  0  0  0  0  0  0  0  0  0
   -0.3952   -1.7967    2.5899 H   0  0  0  0  0  0  0  0  0  0  0  0
   -1.3741   -3.8176   -1.0927 H   0  0  0  0  0  0  0  0  0  0  0  0
    4.8333   -0.1436    0.0626 H   0  0  0  0  0  0  0  0  0  0  0  0
    4.5936   -1.8870    0.2693 H   0  0  0  0  0  0  0  0  0  0  0  0
   -2.7152   -2.1183    3.3720 H   0  0  0  0  0  0  0  0  0  0  0  0
   -3.6886   -4.1256   -0.3004 H   0  0  0  0  0  0  0  0  0  0  0  0
   -4.3667   -3.2807    1.9314 H   0  0  0  0  0  0  0  0  0  0  0  0
   -1.9480    1.7873   -2.5250 H   0  0  0  0  0  0  0  0  0  0  0  0
   -3.1056    0.5979   -1.8941 H   0  0  0  0  0  0  0  0  0  0  0  0
    1.7628    4.2834   -0.1492 H   0  0  0  0  0  0  0  0  0  0  0  0
    3.4614    4.7289   -0.4272 H   0  0  0  0  0  0  0  0  0  0  0  0
    3.0408    3.7736    1.0120 H   0  0  0  0  0  0  0  0  0  0  0  0
    5.2427    0.3785    3.5830 H   0  0  0  0  0  0  0  0  0  0  0  0
    3.6663    0.5797    2.7926 H   0  0  0  0  0  0  0  0  0  0  0  0
    5.1559    1.2055    2.0128 H   0  0  0  0  0  0  0  0  0  0  0  0
   -3.9375    0.7415    0.4180 H   0  0  0  0  0  0  0  0  0  0  0  0
   -1.1267    3.6296   -1.1125 H   0  0  0  0  0  0  0  0  0  0  0  0
   -4.4076    2.2258    2.3358 H   0  0  0  0  0  0  0  0  0  0  0  0
   -1.6057    5.1045    0.8099 H   0  0  0  0  0  0  0  0  0  0  0  0
   -3.2447    4.4081    2.5374 H   0  0  0  0  0  0  0  0  0  0  0  0
  1  9  1  0  0  0  0
  1 18  1  0  0  0  0
  2 14  1  0  0  0  0
  2 22  1  0  0  0  0
  3 15  1  0  0  0  0
  3 24  1  0  0  0  0
  4 18  1  0  0  0  0
  4 25  1  0  0  0  0
  5 14  2  0  0  0  0
  6 15  2  0  0  0  0
  7  8  1  0  0  0  0
  7 13  1  0  0  0  0
  7 14  1  0  0  0  0
  8  9  1  0  0  0  0
  8 10  1  0  0  0  0
  8 31  1  0  0  0  0
  9 11  1  0  0  0  0
  9 32  1  0  0  0  0
 10 12  1  0  0  0  0
 10 33  1  0  0  0  0
 10 34  1  0  0  0  0
 11 15  1  0  0  0  0
 11 35  1  0  0  0  0
 11 36  1  0  0  0  0
 12 16  2  0  0  0  0
 12 17  1  0  0  0  0
 13 37  1  0  0  0  0
 13 38  1  0  0  0  0
 13 39  1  0  0  0  0
 16 19  1  0  0  0  0
 16 40  1  0  0  0  0
 17 20  2  0  0  0  0
 17 41  1  0  0  0  0
 18 42  1  0  0  0  0
 18 43  1  0  0  0  0
 19 21  2  0  0  0  0
 19 44  1  0  0  0  0
 20 21  1  0  0  0  0
 20 45  1  0  0  0  0
 21 46  1  0  0  0  0
 22 23  1  0  0  0  0
 22 47  1  0  0  0  0
 22 48  1  0  0  0  0
 23 26  2  0  0  0  0
 23 27  1  0  0  0  0
 24 49  1  0  0  0  0
 24 50  1  0  0  0  0
 24 51  1  0  0  0  0
 25 52  1  0  0  0  0
 25 53  1  0  0  0  0
 25 54  1  0  0  0  0
 26 28  1  0  0  0  0
 26 55  1  0  0  0  0
 27 29  2  0  0  0  0
 27 56  1  0  0  0  0
 28 30  2  0  0  0  0
 28 57  1  0  0  0  0
 29 30  1  0  0  0  0
 29 58  1  0  0  0  0
 30 59  1  0  0  0  0
M  END
> <PUBCHEM_COMPOUND_CID>
44285975

> <PUBCHEM_CONFORMER_RMSD>
1.2

> <PUBCHEM_CONFORMER_DIVERSEORDER>
3
42
10
61
103
72
56
71
77
92
60
27
50
41
47
82
19
24
108
85
46
109
101
49
38
107
39
88
2
34
81
100
89
69
106
25
18
14
57
37
55
66
67
44
33
78
22
87
11
96
13
80
68
43
76
79
64
90
97
99
32
8
86
84
30
15
105
73
48
98
20
29
63
5
93
104
1
62
95
54
94
17
36
23
83
52
31
91
102
110
65
45
4
59
40
74
75
21
35
51
70
6
7
12
16
53
28
58
26
9

> <PUBCHEM_MMFF94_PARTIAL_CHARGES>
40
1 -0.56
10 0.14
11 0.06
12 -0.14
13 0.3
14 0.78
15 0.66
16 -0.15
17 -0.15
18 0.56
19 -0.15
2 -0.43
20 -0.15
21 -0.15
22 0.42
23 -0.14
24 0.28
25 0.28
26 -0.15
27 -0.15
28 -0.15
29 -0.15
3 -0.43
30 -0.15
4 -0.56
40 0.15
41 0.15
44 0.15
45 0.15
46 0.15
5 -0.57
55 0.15
56 0.15
57 0.15
58 0.15
59 0.15
6 -0.57
7 -0.66
8 0.3
9 0.28

> <PUBCHEM_EFFECTIVE_ROTOR_COUNT>
14

> <PUBCHEM_PHARMACOPHORE_FEATURES>
6
1 1 acceptor
1 4 acceptor
1 5 acceptor
1 6 acceptor
6 12 16 17 19 20 21 rings
6 23 26 27 28 29 30 rings

> <PUBCHEM_HEAVY_ATOM_COUNT>
30

> <PUBCHEM_ATOM_DEF_STEREO_COUNT>
2

> <PUBCHEM_ATOM_UDEF_STEREO_COUNT>
0

> <PUBCHEM_BOND_DEF_STEREO_COUNT>
0

> <PUBCHEM_BOND_UDEF_STEREO_COUNT>
0

> <PUBCHEM_ISOTOPIC_ATOM_COUNT>
0

> <PUBCHEM_COMPONENT_COUNT>
1

> <PUBCHEM_CACTVS_TAUTO_COUNT>
1

> <PUBCHEM_CONFORMER_ID>
02A3C01700000003

> <PUBCHEM_MMFF94_ENERGY>
76.6976

> <PUBCHEM_FEATURE_SELFOVERLAP>
30.484

> <PUBCHEM_SHAPE_FINGERPRINT>
10006869 2 18196092372338526781
10064457 181 17683838443627187383
10382601 240 17694492651065247596
12633257 1 18188501176477866369
12788726 201 18191318271391938466
15338160 23 18335423504229429008
20764821 26 18265350541469508929
35225 105 18259987067835508095
469060 322 17630597032614956895

> <PUBCHEM_SHAPE_MULTIPOLES>
577.19
7.26
6.17
2.75
5.77
2.03
-0.78
3.25
5.31
-5.6
1.92
0.46
-1.28
0.22

> <PUBCHEM_SHAPE_SELFOVERLAP>
1186.576

> <PUBCHEM_SHAPE_VOLUME>
330.9

> <PUBCHEM_COORDINATE_TYPE>
2
5
10

$$$$