137647200
  -OEChem-03242010103D

 71 75  0     1  0  0  0  0  0999 V2000
    4.9466    1.8900    2.7232 O   0  0  0  0  0  0  0  0  0  0  0  0
    5.5094    2.4958    0.0712 O   0  0  0  0  0  0  0  0  0  0  0  0
   -3.3657   -0.6550    1.2908 O   0  0  0  0  0  0  0  0  0  0  0  0
   -4.2686    0.9015   -1.9858 O   0  0  0  0  0  0  0  0  0  0  0  0
    0.2868    3.0420    0.6243 O   0  5  0  0  0  0  0  0  0  0  0  0
    0.5918    0.8839    0.8864 O   0  0  0  0  0  0  0  0  0  0  0  0
    2.0762   -2.9201    0.2596 N   0  0  2  0  0  0  0  0  0  0  0  0
   -0.7052   -3.6757   -0.3259 N   0  0  0  0  0  0  0  0  0  0  0  0
   -0.8469   -2.7816   -1.3178 N   0  0  0  0  0  0  0  0  0  0  0  0
   -1.9292   -2.0604   -1.0470 N   0  0  0  0  0  0  0  0  0  0  0  0
   -2.4006    1.3914   -0.6529 N   0  0  0  0  0  0  0  0  0  0  0  0
    0.3002    1.8727    0.1740 N   0  3  0  0  0  0  0  0  0  0  0  0
    2.9691   -3.0383   -0.8998 C   0  0  0  0  0  0  0  0  0  0  0  0
    2.7918   -2.3072    1.3927 C   0  0  0  0  0  0  0  0  0  0  0  0
    3.3478   -1.6442   -1.4096 C   0  0  0  0  0  0  0  0  0  0  0  0
    3.4887   -1.0152    1.0321 C   0  0  0  0  0  0  0  0  0  0  0  0
    3.7948   -0.7195   -0.3074 C   0  0  0  0  0  0  0  0  0  0  0  0
    1.5447   -4.2281    0.6407 C   0  0  0  0  0  0  0  0  0  0  0  0
    0.4424   -4.6540   -0.3283 C   0  0  0  0  0  0  0  0  0  0  0  0
    3.8922   -0.1331    2.0435 C   0  0  0  0  0  0  0  0  0  0  0  0
    4.4659    0.4703   -0.6187 C   0  0  0  0  0  0  0  0  0  0  0  0
    4.5684    1.0443    1.7244 C   0  0  0  0  0  0  0  0  0  0  0  0
    4.8530    1.3467    0.3946 C   0  0  0  0  0  0  0  0  0  0  0  0
   -1.6901   -3.5525    0.6052 C   0  0  0  0  0  0  0  0  0  0  0  0
   -2.4574   -2.5199    0.1274 C   0  0  0  0  0  0  0  0  0  0  0  0
   -3.6691   -1.9231    0.7034 C   0  0  0  0  0  0  0  0  0  0  0  0
    4.0172    2.9042    3.1000 C   0  0  0  0  0  0  0  0  0  0  0  0
    5.7617    2.7300   -1.3130 C   0  0  0  0  0  0  0  0  0  0  0  0
   -4.3883    0.2500    1.3482 C   0  0  0  0  0  0  0  0  0  0  0  0
   -4.6114    1.1453    0.3022 C   0  0  0  0  0  0  0  0  0  0  0  0
   -5.2157    0.2690    2.4710 C   0  0  0  0  0  0  0  0  0  0  0  0
   -5.6620    2.0596    0.3789 C   0  0  0  0  0  0  0  0  0  0  0  0
   -3.7604    1.1412   -0.8796 C   0  0  0  0  0  0  0  0  0  0  0  0
   -6.2664    1.1834    2.5477 C   0  0  0  0  0  0  0  0  0  0  0  0
   -6.4895    2.0787    1.5016 C   0  0  0  0  0  0  0  0  0  0  0  0
   -1.3429    1.4259   -1.5946 C   0  0  0  0  0  0  0  0  0  0  0  0
   -0.0273    1.6602   -1.1948 C   0  0  0  0  0  0  0  0  0  0  0  0
   -1.6360    1.2203   -2.9427 C   0  0  0  0  0  0  0  0  0  0  0  0
    0.9951    1.6889   -2.1431 C   0  0  0  0  0  0  0  0  0  0  0  0
   -0.6135    1.2490   -3.8910 C   0  0  0  0  0  0  0  0  0  0  0  0
    0.7021    1.4834   -3.4913 C   0  0  0  0  0  0  0  0  0  0  0  0
    2.4978   -3.5692   -1.7329 H   0  0  0  0  0  0  0  0  0  0  0  0
    3.8756   -3.6001   -0.6353 H   0  0  0  0  0  0  0  0  0  0  0  0
    3.5459   -2.9972    1.7948 H   0  0  0  0  0  0  0  0  0  0  0  0
    2.0657   -2.0951    2.1877 H   0  0  0  0  0  0  0  0  0  0  0  0
    2.4808   -1.1900   -1.9058 H   0  0  0  0  0  0  0  0  0  0  0  0
    4.1451   -1.7463   -2.1554 H   0  0  0  0  0  0  0  0  0  0  0  0
    1.1046   -4.1738    1.6453 H   0  0  0  0  0  0  0  0  0  0  0  0
    2.3317   -4.9915    0.6807 H   0  0  0  0  0  0  0  0  0  0  0  0
   -0.0003   -5.6063   -0.0142 H   0  0  0  0  0  0  0  0  0  0  0  0
    0.7620   -4.7556   -1.3693 H   0  0  0  0  0  0  0  0  0  0  0  0
    3.6780   -0.3667    3.0840 H   0  0  0  0  0  0  0  0  0  0  0  0
    4.6541    0.6541   -1.6714 H   0  0  0  0  0  0  0  0  0  0  0  0
   -1.7543   -4.1788    1.4835 H   0  0  0  0  0  0  0  0  0  0  0  0
   -4.4279   -1.8174   -0.0826 H   0  0  0  0  0  0  0  0  0  0  0  0
   -4.0868   -2.5705    1.4834 H   0  0  0  0  0  0  0  0  0  0  0  0
    4.4648    3.4993    3.9006 H   0  0  0  0  0  0  0  0  0  0  0  0
    3.0907    2.4557    3.4726 H   0  0  0  0  0  0  0  0  0  0  0  0
    3.8008    3.5628    2.2528 H   0  0  0  0  0  0  0  0  0  0  0  0
    6.4234    1.9674   -1.7379 H   0  0  0  0  0  0  0  0  0  0  0  0
    6.2912    3.6857   -1.3863 H   0  0  0  0  0  0  0  0  0  0  0  0
    4.8309    2.8390   -1.8801 H   0  0  0  0  0  0  0  0  0  0  0  0
   -5.0477   -0.4254    3.2898 H   0  0  0  0  0  0  0  0  0  0  0  0
   -5.8461    2.7640   -0.4284 H   0  0  0  0  0  0  0  0  0  0  0  0
   -6.9106    1.1983    3.4220 H   0  0  0  0  0  0  0  0  0  0  0  0
   -7.3073    2.7908    1.5615 H   0  0  0  0  0  0  0  0  0  0  0  0
   -2.1298    1.5622    0.3127 H   0  0  0  0  0  0  0  0  0  0  0  0
   -2.6235    1.0383   -3.3394 H   0  0  0  0  0  0  0  0  0  0  0  0
    2.0241    1.8763   -1.8483 H   0  0  0  0  0  0  0  0  0  0  0  0
   -0.8403    1.0903   -4.9414 H   0  0  0  0  0  0  0  0  0  0  0  0
    1.4983    1.5068   -4.2296 H   0  0  0  0  0  0  0  0  0  0  0  0
  1 22  1  0  0  0  0
  1 27  1  0  0  0  0
  2 23  1  0  0  0  0
  2 28  1  0  0  0  0
  3 26  1  0  0  0  0
  3 29  1  0  0  0  0
  4 33  2  0  0  0  0
  5 12  1  0  0  0  0
  6 12  2  0  0  0  0
  7 13  1  0  0  0  0
  7 14  1  0  0  0  0
  7 18  1  0  0  0  0
  8  9  1  0  0  0  0
  8 19  1  0  0  0  0
  8 24  1  0  0  0  0
  9 10  2  0  0  0  0
 10 25  1  0  0  0  0
 11 33  1  0  0  0  0
 11 36  1  0  0  0  0
 11 67  1  0  0  0  0
 12 37  1  0  0  0  0
 13 15  1  0  0  0  0
 13 42  1  0  0  0  0
 13 43  1  0  0  0  0
 14 16  1  0  0  0  0
 14 44  1  0  0  0  0
 14 45  1  0  0  0  0
 15 17  1  0  0  0  0
 15 46  1  0  0  0  0
 15 47  1  0  0  0  0
 16 17  1  0  0  0  0
 16 20  2  0  0  0  0
 17 21  2  0  0  0  0
 18 19  1  0  0  0  0
 18 48  1  0  0  0  0
 18 49  1  0  0  0  0
 19 50  1  0  0  0  0
 19 51  1  0  0  0  0
 20 22  1  0  0  0  0
 20 52  1  0  0  0  0
 21 23  1  0  0  0  0
 21 53  1  0  0  0  0
 22 23  2  0  0  0  0
 24 25  2  0  0  0  0
 24 54  1  0  0  0  0
 25 26  1  0  0  0  0
 26 55  1  0  0  0  0
 26 56  1  0  0  0  0
 27 57  1  0  0  0  0
 27 58  1  0  0  0  0
 27 59  1  0  0  0  0
 28 60  1  0  0  0  0
 28 61  1  0  0  0  0
 28 62  1  0  0  0  0
 29 30  1  0  0  0  0
 29 31  2  0  0  0  0
 30 32  2  0  0  0  0
 30 33  1  0  0  0  0
 31 34  1  0  0  0  0
 31 63  1  0  0  0  0
 32 35  1  0  0  0  0
 32 64  1  0  0  0  0
 34 35  2  0  0  0  0
 34 65  1  0  0  0  0
 35 66  1  0  0  0  0
 36 37  1  0  0  0  0
 36 38  2  0  0  0  0
 37 39  2  0  0  0  0
 38 40  1  0  0  0  0
 38 68  1  0  0  0  0
 39 41  1  0  0  0  0
 39 69  1  0  0  0  0
 40 41  2  0  0  0  0
 40 70  1  0  0  0  0
 41 71  1  0  0  0  0
M  CHG  2   5  -1  12   1
M  END
> <PUBCHEM_COMPOUND_CID>
137647200

> <PUBCHEM_CONFORMER_RMSD>
1.4

> <PUBCHEM_CONFORMER_DIVERSEORDER>
1
221
95
75
203
210
55
105
61
227
126
106
45
282
155
5
29
165
252
142
93
254
159
271
77
213
234
215
209
274
14
81
208
259
153
134
200
249
90
6
277
214
100
278
206
244
115
103
220
23
263
7
18
52
128
144
224
175
189
120
198
264
225
132
143
64
125
4
204
46
272
238
218
16
25
230
223
111
240
173
174
13
57
72
170
255
152
22
212
156
116
92
78
69
11
130
50
161
56
47
217
201
164
109
253
181
186
228
248
148
28
113
182
104
8
133
267
76
37
83
63
180
167
43
118
183
172
65
232
112
58
247
270
216
260
149
268
38
73
129
179
205
124
257
34
30
151
131
158
41
2
97
138
68
84
229
265
80
54
87
222
269
3
86
160
62
108
66
168
178
94
48
20
226
243
242
258
44
85
190
9
53
51
211
10
19
185
82
36
279
67
31
60
187
176
262
162
276
261
70
171
169
27
239
197
273
101
237
32
21
266
235
24
275
98
207
17
157
35
199
89
99
114
117
49
245
250
12
40
256
15
192
280
74
79
136
26
202
59
122
91
281
88
135
141
33
163
121
251
233
219
110
102
241
127
231
188
166
184
196
137
146
107
246
194
140
123
150
154
147
177
42
236
96
39
145
195
71
193
119
191
139

> <PUBCHEM_MMFF94_PARTIAL_CHARGES>
53
1 -0.36
10 -0.23
11 -0.55
12 0.91
13 0.27
14 0.41
15 0.14
16 -0.14
17 -0.14
18 0.27
19 0.26
2 -0.36
20 -0.15
21 -0.15
22 0.08
23 0.08
24 -0.3
25 0.05
26 0.46
27 0.28
28 0.28
29 0.08
3 -0.36
30 0.09
31 -0.15
32 -0.15
33 0.54
34 -0.15
35 -0.15
36 0.12
37 0.13
38 -0.15
39 -0.15
4 -0.57
40 -0.15
41 -0.15
5 -0.52
52 0.15
53 0.15
54 0.15
6 -0.52
63 0.15
64 0.15
65 0.15
66 0.15
67 0.37
68 0.15
69 0.15
7 -0.81
70 0.15
71 0.15
8 0.31
9 -0.42

> <PUBCHEM_EFFECTIVE_ROTOR_COUNT>
12.8

> <PUBCHEM_PHARMACOPHORE_FEATURES>
14
1 1 acceptor
1 11 donor
1 2 acceptor
1 3 acceptor
1 4 acceptor
1 5 acceptor
1 5 anion
1 6 acceptor
1 7 cation
5 8 9 10 24 25 rings
6 16 17 20 21 22 23 rings
6 29 30 31 32 34 35 rings
6 36 37 38 39 40 41 rings
6 7 13 14 15 16 17 rings

> <PUBCHEM_HEAVY_ATOM_COUNT>
41

> <PUBCHEM_ATOM_DEF_STEREO_COUNT>
0

> <PUBCHEM_ATOM_UDEF_STEREO_COUNT>
0

> <PUBCHEM_BOND_DEF_STEREO_COUNT>
0

> <PUBCHEM_BOND_UDEF_STEREO_COUNT>
0

> <PUBCHEM_ISOTOPIC_ATOM_COUNT>
0

> <PUBCHEM_COMPONENT_COUNT>
1

> <PUBCHEM_CACTVS_TAUTO_COUNT>
-1

> <PUBCHEM_CONFORMER_ID>
0834546000000001

> <PUBCHEM_MMFF94_ENERGY>
139.0366

> <PUBCHEM_FEATURE_SELFOVERLAP>
71.158

> <PUBCHEM_SHAPE_FINGERPRINT>
10816530 23 17346592002022807638
11112241 14 18272638035850729017
11513181 2 18201446921184507278
12128747 34 18050846620449606697
12166972 35 13190341240862216736
12422481 6 18040991826002979280
13726171 33 18194409007811656144
14004853 49 17970083316432776428
14020679 6 18131068289738451713
144659 39 17532628201342971804
14725015 67 17391627783917490435
14840074 17 17895759637656625108
14904385 31 18409724041589641176
15297060 5 18337967770057199094
15406563 190 17894349969071521477
19309040 13 17561077042678134432
1979834 28 18188785945979076107
20764821 26 18195779973840417234
21133410 32 12125257997658111885
392239 28 18270391685765122990
469060 322 17677321835451027782
550186 83 17386013853428384278
9982175 49 16954795490783827636

> <PUBCHEM_SHAPE_MULTIPOLES>
778.66
13.33
5.1
3.26
7.27
5.92
-1.03
-9.87
9.76
-2.86
-0.17
-0.15
-2.87
0.8

> <PUBCHEM_SHAPE_SELFOVERLAP>
1683.728

> <PUBCHEM_SHAPE_VOLUME>
426.4

> <PUBCHEM_COORDINATE_TYPE>
2
5
10

$$$$