137661982
  -OEChem-03242010103D

 69 73  0     1  0  0  0  0  0999 V2000
   -6.7503    3.2652    1.4764 F   0  0  0  0  0  0  0  0  0  0  0  0
    4.1813    3.5208   -0.0945 O   0  0  0  0  0  0  0  0  0  0  0  0
    6.0004    1.5056   -0.6835 O   0  0  0  0  0  0  0  0  0  0  0  0
   -1.6545   -2.3958   -2.6638 O   0  0  0  0  0  0  0  0  0  0  0  0
   -2.9123    0.3148   -2.8370 O   0  0  0  0  0  0  0  0  0  0  0  0
    1.0133   -1.0696    2.4232 N   0  0  2  0  0  0  0  0  0  0  0  0
   -1.3088   -2.7168    1.6854 N   0  0  0  0  0  0  0  0  0  0  0  0
   -2.4708   -2.1157    1.3825 N   0  0  0  0  0  0  0  0  0  0  0  0
   -2.7124   -2.3492    0.0972 N   0  0  0  0  0  0  0  0  0  0  0  0
   -2.2338    0.8558   -0.6568 N   0  0  0  0  0  0  0  0  0  0  0  0
    2.1901   -1.8590    2.8069 C   0  0  0  0  0  0  0  0  0  0  0  0
    1.3563    0.3626    2.3705 C   0  0  0  0  0  0  0  0  0  0  0  0
    3.2558   -1.7722    1.7097 C   0  0  0  0  0  0  0  0  0  0  0  0
    2.5798    0.6544    1.5320 C   0  0  0  0  0  0  0  0  0  0  0  0
    3.5126   -0.3594    1.2539 C   0  0  0  0  0  0  0  0  0  0  0  0
   -0.0896   -1.2948    3.3566 C   0  0  0  0  0  0  0  0  0  0  0  0
   -0.7464   -2.6472    3.0829 C   0  0  0  0  0  0  0  0  0  0  0  0
    2.8229    1.9590    1.0813 C   0  0  0  0  0  0  0  0  0  0  0  0
    4.6544   -0.0625    0.4983 C   0  0  0  0  0  0  0  0  0  0  0  0
    3.9675    2.2468    0.3381 C   0  0  0  0  0  0  0  0  0  0  0  0
    4.8811    1.2367    0.0450 C   0  0  0  0  0  0  0  0  0  0  0  0
   -0.7750   -3.3501    0.6054 C   0  0  0  0  0  0  0  0  0  0  0  0
   -1.6832   -3.1038   -0.3934 C   0  0  0  0  0  0  0  0  0  0  0  0
   -1.6548   -3.5335   -1.7973 C   0  0  0  0  0  0  0  0  0  0  0  0
    3.6528    3.8680   -1.3730 C   0  0  0  0  0  0  0  0  0  0  0  0
    6.8842    0.4156   -0.9393 C   0  0  0  0  0  0  0  0  0  0  0  0
   -0.5754   -1.5620   -2.5740 C   0  0  0  0  0  0  0  0  0  0  0  0
   -0.7338   -0.2216   -2.2220 C   0  0  0  0  0  0  0  0  0  0  0  0
    0.6974   -2.0681   -2.8373 C   0  0  0  0  0  0  0  0  0  0  0  0
    0.3805    0.6126   -2.1332 C   0  0  0  0  0  0  0  0  0  0  0  0
   -2.0535    0.3267   -1.9415 C   0  0  0  0  0  0  0  0  0  0  0  0
    1.8120   -1.2339   -2.7485 C   0  0  0  0  0  0  0  0  0  0  0  0
    1.6535    0.1064   -2.3965 C   0  0  0  0  0  0  0  0  0  0  0  0
   -3.3876    1.4710   -0.1119 C   0  0  0  0  0  0  0  0  0  0  0  0
   -4.5380    1.6078   -0.8889 C   0  0  0  0  0  0  0  0  0  0  0  0
   -3.3732    1.9406    1.2014 C   0  0  0  0  0  0  0  0  0  0  0  0
   -5.6739    2.2141   -0.3527 C   0  0  0  0  0  0  0  0  0  0  0  0
   -4.5090    2.5469    1.7377 C   0  0  0  0  0  0  0  0  0  0  0  0
   -5.6593    2.6838    0.9608 C   0  0  0  0  0  0  0  0  0  0  0  0
    1.9523   -2.9189    2.9417 H   0  0  0  0  0  0  0  0  0  0  0  0
    2.6031   -1.5010    3.7601 H   0  0  0  0  0  0  0  0  0  0  0  0
    1.5361    0.7566    3.3798 H   0  0  0  0  0  0  0  0  0  0  0  0
    0.5067    0.9067    1.9384 H   0  0  0  0  0  0  0  0  0  0  0  0
    2.9319   -2.3568    0.8388 H   0  0  0  0  0  0  0  0  0  0  0  0
    4.1852   -2.2166    2.0852 H   0  0  0  0  0  0  0  0  0  0  0  0
   -0.8550   -0.5187    3.2236 H   0  0  0  0  0  0  0  0  0  0  0  0
    0.2424   -1.2374    4.4007 H   0  0  0  0  0  0  0  0  0  0  0  0
   -1.6073   -2.8033    3.7432 H   0  0  0  0  0  0  0  0  0  0  0  0
   -0.0783   -3.5065    3.1877 H   0  0  0  0  0  0  0  0  0  0  0  0
    2.1160    2.7528    1.3115 H   0  0  0  0  0  0  0  0  0  0  0  0
    5.3259   -0.8908    0.2971 H   0  0  0  0  0  0  0  0  0  0  0  0
    0.1590   -3.8926    0.6399 H   0  0  0  0  0  0  0  0  0  0  0  0
   -0.8112   -4.1971   -2.0165 H   0  0  0  0  0  0  0  0  0  0  0  0
   -2.5642   -4.1030   -2.0191 H   0  0  0  0  0  0  0  0  0  0  0  0
    3.9053    4.9122   -1.5763 H   0  0  0  0  0  0  0  0  0  0  0  0
    2.5632    3.7633   -1.3789 H   0  0  0  0  0  0  0  0  0  0  0  0
    4.0941    3.2422   -2.1552 H   0  0  0  0  0  0  0  0  0  0  0  0
    7.7187    0.8097   -1.5287 H   0  0  0  0  0  0  0  0  0  0  0  0
    6.4044   -0.3587   -1.5476 H   0  0  0  0  0  0  0  0  0  0  0  0
    7.3110    0.0155   -0.0133 H   0  0  0  0  0  0  0  0  0  0  0  0
    0.8411   -3.1043   -3.1299 H   0  0  0  0  0  0  0  0  0  0  0  0
    0.2748    1.6606   -1.8641 H   0  0  0  0  0  0  0  0  0  0  0  0
    2.8030   -1.6266   -2.9566 H   0  0  0  0  0  0  0  0  0  0  0  0
    2.5207    0.7565   -2.3316 H   0  0  0  0  0  0  0  0  0  0  0  0
   -1.4429    0.7958   -0.0183 H   0  0  0  0  0  0  0  0  0  0  0  0
   -4.6266    1.2697   -1.9115 H   0  0  0  0  0  0  0  0  0  0  0  0
   -2.4835    1.8390    1.8177 H   0  0  0  0  0  0  0  0  0  0  0  0
   -6.5706    2.3211   -0.9561 H   0  0  0  0  0  0  0  0  0  0  0  0
   -4.4983    2.9122    2.7604 H   0  0  0  0  0  0  0  0  0  0  0  0
  1 39  1  0  0  0  0
  2 20  1  0  0  0  0
  2 25  1  0  0  0  0
  3 21  1  0  0  0  0
  3 26  1  0  0  0  0
  4 24  1  0  0  0  0
  4 27  1  0  0  0  0
  5 31  2  0  0  0  0
  6 11  1  0  0  0  0
  6 12  1  0  0  0  0
  6 16  1  0  0  0  0
  7  8  1  0  0  0  0
  7 17  1  0  0  0  0
  7 22  1  0  0  0  0
  8  9  2  0  0  0  0
  9 23  1  0  0  0  0
 10 31  1  0  0  0  0
 10 34  1  0  0  0  0
 10 65  1  0  0  0  0
 11 13  1  0  0  0  0
 11 40  1  0  0  0  0
 11 41  1  0  0  0  0
 12 14  1  0  0  0  0
 12 42  1  0  0  0  0
 12 43  1  0  0  0  0
 13 15  1  0  0  0  0
 13 44  1  0  0  0  0
 13 45  1  0  0  0  0
 14 15  1  0  0  0  0
 14 18  2  0  0  0  0
 15 19  2  0  0  0  0
 16 17  1  0  0  0  0
 16 46  1  0  0  0  0
 16 47  1  0  0  0  0
 17 48  1  0  0  0  0
 17 49  1  0  0  0  0
 18 20  1  0  0  0  0
 18 50  1  0  0  0  0
 19 21  1  0  0  0  0
 19 51  1  0  0  0  0
 20 21  2  0  0  0  0
 22 23  2  0  0  0  0
 22 52  1  0  0  0  0
 23 24  1  0  0  0  0
 24 53  1  0  0  0  0
 24 54  1  0  0  0  0
 25 55  1  0  0  0  0
 25 56  1  0  0  0  0
 25 57  1  0  0  0  0
 26 58  1  0  0  0  0
 26 59  1  0  0  0  0
 26 60  1  0  0  0  0
 27 28  1  0  0  0  0
 27 29  2  0  0  0  0
 28 30  2  0  0  0  0
 28 31  1  0  0  0  0
 29 32  1  0  0  0  0
 29 61  1  0  0  0  0
 30 33  1  0  0  0  0
 30 62  1  0  0  0  0
 32 33  2  0  0  0  0
 32 63  1  0  0  0  0
 33 64  1  0  0  0  0
 34 35  2  0  0  0  0
 34 36  1  0  0  0  0
 35 37  1  0  0  0  0
 35 66  1  0  0  0  0
 36 38  2  0  0  0  0
 36 67  1  0  0  0  0
 37 39  2  0  0  0  0
 37 68  1  0  0  0  0
 38 39  1  0  0  0  0
 38 69  1  0  0  0  0
M  END
> <PUBCHEM_COMPOUND_CID>
137661982

> <PUBCHEM_CONFORMER_RMSD>
1.4

> <PUBCHEM_CONFORMER_DIVERSEORDER>
1
160
44
2
119
83
53
122
137
162
106
155
5
146
48
14
109
148
105
163
20
21
179
166
9
139
116
170
25
46
102
85
108
89
33
141
114
117
120
27
158
84
145
3
98
81
10
41
77
36
79
100
73
38
177
129
174
6
32
135
30
80
130
26
15
176
52
57
19
124
28
23
112
159
7
126
24
128
104
110
50
87
169
66
61
60
40
154
118
16
96
153
86
175
133
161
70
164
29
62
12
150
151
82
172
4
65
72
54
8
45
101
75
147
69
165
58
91
55
88
136
152
95
37
168
68
167
78
149
42
18
107
49
51
138
140
121
39
125
132
123
11
76
143
74
171
99
134
47
64
97
113
59
103
93
31
127
94
90
13
71
178
156
56
35
157
22
142
131
67
173
144
43
63
115
92
34
111
17

> <PUBCHEM_MMFF94_PARTIAL_CHARGES>
51
1 -0.19
10 -0.55
11 0.27
12 0.41
13 0.14
14 -0.14
15 -0.14
16 0.27
17 0.26
18 -0.15
19 -0.15
2 -0.36
20 0.08
21 0.08
22 -0.3
23 0.05
24 0.46
25 0.28
26 0.28
27 0.08
28 0.09
29 -0.15
3 -0.36
30 -0.15
31 0.54
32 -0.15
33 -0.15
34 0.12
35 -0.15
36 -0.15
37 -0.15
38 -0.15
39 0.19
4 -0.36
5 -0.57
50 0.15
51 0.15
52 0.15
6 -0.81
61 0.15
62 0.15
63 0.15
64 0.15
65 0.37
66 0.15
67 0.15
68 0.15
69 0.15
7 0.31
8 -0.42
9 -0.23

> <PUBCHEM_EFFECTIVE_ROTOR_COUNT>
11.8

> <PUBCHEM_PHARMACOPHORE_FEATURES>
11
1 10 donor
1 2 acceptor
1 3 acceptor
1 4 acceptor
1 5 acceptor
1 6 cation
5 7 8 9 22 23 rings
6 14 15 18 19 20 21 rings
6 27 28 29 30 32 33 rings
6 34 35 36 37 38 39 rings
6 6 11 12 13 14 15 rings

> <PUBCHEM_HEAVY_ATOM_COUNT>
39

> <PUBCHEM_ATOM_DEF_STEREO_COUNT>
0

> <PUBCHEM_ATOM_UDEF_STEREO_COUNT>
0

> <PUBCHEM_BOND_DEF_STEREO_COUNT>
0

> <PUBCHEM_BOND_UDEF_STEREO_COUNT>
0

> <PUBCHEM_ISOTOPIC_ATOM_COUNT>
0

> <PUBCHEM_COMPONENT_COUNT>
1

> <PUBCHEM_CACTVS_TAUTO_COUNT>
-1

> <PUBCHEM_CONFORMER_ID>
08348E1E00000001

> <PUBCHEM_MMFF94_ENERGY>
123.5233

> <PUBCHEM_FEATURE_SELFOVERLAP>
55.851

> <PUBCHEM_SHAPE_FINGERPRINT>
11112662 9 18340202982127055257
11578080 2 18270979967446556622
11607047 403 18409457960287941867
11966995 178 14260485961966504649
1200032 147 16987169223790051729
12104220 4 18261407606404336813
12156800 1 17607565493496068755
12608794 3 17314766578243975786
12788726 201 18054769944203780903
13636023 20 12966256359900066829
14020679 6 18260836998813513188
14279260 333 18408318888010905282
14395042 70 17769105553450437801
144659 39 18338812194191161649
14615647 1 15528001547888155680
14840074 17 15864066611270772798
15119646 57 18336265764264181960
15351334 14 17840049638958609876
16067690 210 18341889714279064856
16991981 162 18198329844436873959
17809404 112 14763194922192790442
20764821 26 17200828572865139394
21458453 9 16950290607029729065
22121540 332 17314231051535276036
35225 105 18266435690352262951
50150288 127 18123769787540869585
5252454 2 17676759933833494232

> <PUBCHEM_SHAPE_MULTIPOLES>
746.95
11.73
4.64
3.83
0.03
0.16
-0.12
-14.72
1.59
2.58
0.47
0.19
2.6
-2.37

> <PUBCHEM_SHAPE_SELFOVERLAP>
1617.779

> <PUBCHEM_SHAPE_VOLUME>
409.8

> <PUBCHEM_COORDINATE_TYPE>
2
5
10

$$$$