647240
  -OEChem-03242010103D

 25 27  0     0  0  0  0  0  0999 V2000
    0.3251    2.1808   -0.0143 S   0  0  0  0  0  0  0  0  0  0  0  0
   -2.8526   -1.3085   -0.2149 S   0  0  0  0  0  0  0  0  0  0  0  0
   -0.6712   -2.6280    0.2470 O   0  0  0  0  0  0  0  0  0  0  0  0
   -2.1743    1.3354    0.0538 N   0  0  0  0  0  0  0  0  0  0  0  0
   -4.4333    0.7558    0.0135 N   0  0  0  0  0  0  0  0  0  0  0  0
    2.0749   -1.4207   -0.0071 C   0  0  0  0  0  0  0  0  0  0  0  0
    3.5047   -1.0059   -0.3873 C   0  0  0  0  0  0  0  0  0  0  0  0
    1.1228   -0.2576   -0.0122 C   0  0  0  0  0  0  0  0  0  0  0  0
    3.9298    0.2820    0.3278 C   0  0  0  0  0  0  0  0  0  0  0  0
    3.0200    1.4590   -0.0494 C   0  0  0  0  0  0  0  0  0  0  0  0
    1.5819    1.0448   -0.0151 C   0  0  0  0  0  0  0  0  0  0  0  0
   -0.3174   -0.3105    0.0146 C   0  0  0  0  0  0  0  0  0  0  0  0
   -0.8761    0.9548    0.0140 C   0  0  0  0  0  0  0  0  0  0  0  0
   -1.1318   -1.5090    0.0576 C   0  0  0  0  0  0  0  0  0  0  0  0
   -3.1026    0.4275   -0.0280 C   0  0  0  0  0  0  0  0  0  0  0  0
    2.0810   -1.8596    0.9983 H   0  0  0  0  0  0  0  0  0  0  0  0
    1.7367   -2.1950   -0.7046 H   0  0  0  0  0  0  0  0  0  0  0  0
    4.1980   -1.8182   -0.1418 H   0  0  0  0  0  0  0  0  0  0  0  0
    3.5653   -0.8504   -1.4723 H   0  0  0  0  0  0  0  0  0  0  0  0
    4.9679    0.5266    0.0758 H   0  0  0  0  0  0  0  0  0  0  0  0
    3.8928    0.1198    1.4127 H   0  0  0  0  0  0  0  0  0  0  0  0
    3.2673    1.7983   -1.0630 H   0  0  0  0  0  0  0  0  0  0  0  0
    3.2064    2.2952    0.6342 H   0  0  0  0  0  0  0  0  0  0  0  0
   -5.1534    0.0449   -0.0551 H   0  0  0  0  0  0  0  0  0  0  0  0
   -4.7345    1.7190    0.1135 H   0  0  0  0  0  0  0  0  0  0  0  0
  1 11  1  0  0  0  0
  1 13  1  0  0  0  0
  2 14  1  0  0  0  0
  2 15  1  0  0  0  0
  3 14  2  0  0  0  0
  4 13  1  0  0  0  0
  4 15  2  0  0  0  0
  5 15  1  0  0  0  0
  5 24  1  0  0  0  0
  5 25  1  0  0  0  0
  6  7  1  0  0  0  0
  6  8  1  0  0  0  0
  6 16  1  0  0  0  0
  6 17  1  0  0  0  0
  7  9  1  0  0  0  0
  7 18  1  0  0  0  0
  7 19  1  0  0  0  0
  8 11  2  0  0  0  0
  8 12  1  0  0  0  0
  9 10  1  0  0  0  0
  9 20  1  0  0  0  0
  9 21  1  0  0  0  0
 10 11  1  0  0  0  0
 10 22  1  0  0  0  0
 10 23  1  0  0  0  0
 12 13  2  0  0  0  0
 12 14  1  0  0  0  0
M  END
> <PUBCHEM_COMPOUND_CID>
647240

> <PUBCHEM_CONFORMER_RMSD>
0.4

> <PUBCHEM_CONFORMER_DIVERSEORDER>
1

> <PUBCHEM_MMFF94_PARTIAL_CHARGES>
15
1 -0.08
10 0.18
11 -0.14
12 -0.09
13 0.17
14 0.8
15 0.64
2 -0.28
24 0.4
25 0.4
3 -0.57
4 -0.58
5 -0.85
6 0.18
8 -0.18

> <PUBCHEM_EFFECTIVE_ROTOR_COUNT>
0.8

> <PUBCHEM_PHARMACOPHORE_FEATURES>
5
1 5 donor
3 4 5 15 cation
5 1 8 11 12 13 rings
6 2 4 12 13 14 15 rings
6 6 7 8 9 10 11 rings

> <PUBCHEM_HEAVY_ATOM_COUNT>
15

> <PUBCHEM_ATOM_DEF_STEREO_COUNT>
0

> <PUBCHEM_ATOM_UDEF_STEREO_COUNT>
0

> <PUBCHEM_BOND_DEF_STEREO_COUNT>
0

> <PUBCHEM_BOND_UDEF_STEREO_COUNT>
0

> <PUBCHEM_ISOTOPIC_ATOM_COUNT>
0

> <PUBCHEM_COMPONENT_COUNT>
1

> <PUBCHEM_CACTVS_TAUTO_COUNT>
4

> <PUBCHEM_CONFORMER_ID>
0009E04800000001

> <PUBCHEM_MMFF94_ENERGY>
26.4139

> <PUBCHEM_FEATURE_SELFOVERLAP>
25.49

> <PUBCHEM_SHAPE_FINGERPRINT>
10411042 1 16897364210573138099
10608611 8 18339920519192036136
10967382 1 18410575046018929254
11132069 177 18412538812483131936
11471102 20 18411415098688379692
12032990 46 18410580577947356010
12382932 28 18411981394753432690
13140716 1 18410573963724139842
13221675 6 18409729564521567730
13380535 21 18337963397115892092
13380535 76 18412544323052968086
14115302 16 18260842496466435180
14144814 61 18410574011000395826
14325111 11 18411138039001333205
14897335 6 18411979186934559444
14993402 34 18409450262845898645
15196674 1 18410855490192952367
15219456 202 18341614849440878862
15309172 13 18410582768713051619
15442244 35 18267585715253755474
15536298 74 18343582941047768884
15775835 57 18334577932115533595
16945 1 18194405729991297548
18186145 218 18409444756676641901
193761 8 17977948208699362313
200 152 17846775226234045759
20201158 50 18413389830356939726
20510252 161 18200311009476379248
20528008 55 18341609321691381408
20588541 1 18412263943398341428
20645476 183 17824001084616315062
20645477 70 18342737382030240239
21267235 1 18411146835110309598
21501502 16 18266177416714856740
2334 1 18410856589720430370
23402539 116 18342447145235602724
23402655 69 18342452617251089973
23463225 33 18408884040428019604
23559900 14 18343018874893564942
2748010 2 18410294713503571430
335352 9 18338798914310258822
34934 24 18411411839208914160
5104073 3 18411136973796547826
528886 8 18411131433304513962
53812653 166 18342172293219989616
54173680 148 18192714672597387131
69090 78 18413103965923613599
7364860 26 18197779023334329864
8809292 202 18335987536119034970
9709674 26 18341335590762706430

> <PUBCHEM_SHAPE_MULTIPOLES>
300.56
6.45
2.27
0.64
0.65
0.32
-0.01
-0.33
-0.09
0.15
0.04
-0.07
0.01
0.06

> <PUBCHEM_SHAPE_SELFOVERLAP>
631.681

> <PUBCHEM_SHAPE_VOLUME>
170.7

> <PUBCHEM_COORDINATE_TYPE>
2
5
10

$$$$