178
 OpenBabel03292022023D

 50 53  0  0  0  0  0  0  0  0999 V2000
    3.0794    0.7409   -3.2222 C   0  0  0  0  0  0  0  0  0  0  0  0
    2.4999    2.0408   -3.2571 O   0  0  0  0  0  0  0  0  0  0  0  0
    2.9336    2.9067   -2.2856 C   0  0  0  0  0  0  0  0  0  0  0  0
    4.2093    2.8303   -1.7091 C   0  0  0  0  0  0  0  0  0  0  0  0
    4.6100    3.7283   -0.7125 C   0  0  0  0  0  0  0  0  0  0  0  0
    5.8404    3.5301   -0.0497 N   0  0  0  0  0  0  0  0  0  0  0  0
    6.6117    4.5425    0.5650 C   0  0  0  0  0  0  0  0  0  0  0  0
    6.5876    5.7600    0.0103 N   0  0  0  0  0  0  0  0  0  0  0  0
    7.3022    6.7275    0.5952 C   0  0  0  0  0  0  0  0  0  0  0  0
    7.3029    8.0462   -0.0675 C   0  0  0  0  0  0  0  0  0  0  0  0
    7.9675    9.1460    0.4838 C   0  0  0  0  0  0  0  0  0  0  0  0
    7.9579   10.3830   -0.1631 C   0  0  0  0  0  0  0  0  0  0  0  0
    7.2860   10.5659   -1.3803 C   0  0  0  0  0  0  0  0  0  0  0  0
    7.4081   11.8502   -1.8408 O   0  0  0  0  0  0  0  0  0  0  0  0
    6.7918   12.1997   -3.0692 C   0  0  0  0  0  0  0  0  0  0  0  0
    6.6060    9.4830   -1.9578 C   0  0  0  0  0  0  0  0  0  0  0  0
    5.9409    9.6781   -3.1386 O   0  0  0  0  0  0  0  0  0  0  0  0
    5.2718    8.5734   -3.7348 C   0  0  0  0  0  0  0  0  0  0  0  0
    6.6311    8.2449   -1.2955 C   0  0  0  0  0  0  0  0  0  0  0  0
    8.0146    6.5675    1.7191 N   0  0  0  0  0  0  0  0  0  0  0  0
    8.0376    5.3475    2.2637 C   0  0  0  0  0  0  0  0  0  0  0  0
    8.7362    5.1583    3.4506 C   0  0  0  0  0  0  0  0  0  0  0  0
    8.8121    3.9111    4.0763 C   0  0  0  0  0  0  0  0  0  0  0  0
    8.1824    2.8132    3.5038 C   0  0  0  0  0  0  0  0  0  0  0  0
    7.4605    2.9795    2.3256 C   0  0  0  0  0  0  0  0  0  0  0  0
    7.3728    4.2500    1.7046 C   0  0  0  0  0  0  0  0  0  0  0  0
    3.7049    4.7186   -0.3041 C   0  0  0  0  0  0  0  0  0  0  0  0
    2.4413    4.8241   -0.8871 C   0  0  0  0  0  0  0  0  0  0  0  0
    2.0567    3.9194   -1.8746 C   0  0  0  0  0  0  0  0  0  0  0  0
    0.3034    4.0723   -2.5873 Br  0  0  0  0  0  0  0  0  0  0  0  0
    2.4776    0.0860   -3.8583 H   0  0  0  0  0  0  0  0  0  0  0  0
    3.0704    0.3243   -2.2084 H   0  0  0  0  0  0  0  0  0  0  0  0
    4.0955    0.7587   -3.6292 H   0  0  0  0  0  0  0  0  0  0  0  0
    4.9144    2.0739   -2.0347 H   0  0  0  0  0  0  0  0  0  0  0  0
    6.4544    2.8651   -0.5041 H   0  0  0  0  0  0  0  0  0  0  0  0
    8.5020    9.0503    1.4266 H   0  0  0  0  0  0  0  0  0  0  0  0
    8.4867   11.2201    0.2869 H   0  0  0  0  0  0  0  0  0  0  0  0
    7.0301   13.2493   -3.2697 H   0  0  0  0  0  0  0  0  0  0  0  0
    5.7023   12.1236   -3.0007 H   0  0  0  0  0  0  0  0  0  0  0  0
    7.1970   11.6154   -3.9012 H   0  0  0  0  0  0  0  0  0  0  0  0
    4.7732    8.9360   -4.6391 H   0  0  0  0  0  0  0  0  0  0  0  0
    4.4980    8.1688   -3.0743 H   0  0  0  0  0  0  0  0  0  0  0  0
    5.9851    7.7993   -4.0364 H   0  0  0  0  0  0  0  0  0  0  0  0
    6.1200    7.3854   -1.7267 H   0  0  0  0  0  0  0  0  0  0  0  0
    9.2292    6.0138    3.9109 H   0  0  0  0  0  0  0  0  0  0  0  0
    9.3582    3.8049    5.0098 H   0  0  0  0  0  0  0  0  0  0  0  0
    8.2395    1.8381    3.9808 H   0  0  0  0  0  0  0  0  0  0  0  0
    6.9470    2.1204    1.8977 H   0  0  0  0  0  0  0  0  0  0  0  0
    3.9703    5.4121    0.4908 H   0  0  0  0  0  0  0  0  0  0  0  0
    1.7615    5.6001   -0.5438 H   0  0  0  0  0  0  0  0  0  0  0  0
  1  2  1  0  0  0  0
  1 31  1  0  0  0  0
  1 32  1  0  0  0  0
  1 33  1  0  0  0  0
  2  3  1  0  0  0  0
  3  4  1  0  0  0  0
  3 29  2  0  0  0  0
  4  5  2  0  0  0  0
  4 34  1  0  0  0  0
  5  6  1  0  0  0  0
  5 27  1  0  0  0  0
  6  7  1  0  0  0  0
  6 35  1  0  0  0  0
  7  8  1  0  0  0  0
  7 26  2  0  0  0  0
  8  9  2  0  0  0  0
  9 10  1  0  0  0  0
  9 20  1  0  0  0  0
 10 11  1  0  0  0  0
 10 19  2  0  0  0  0
 11 12  2  0  0  0  0
 11 36  1  0  0  0  0
 12 13  1  0  0  0  0
 12 37  1  0  0  0  0
 13 14  1  0  0  0  0
 13 16  2  0  0  0  0
 14 15  1  0  0  0  0
 15 38  1  0  0  0  0
 15 39  1  0  0  0  0
 15 40  1  0  0  0  0
 16 17  1  0  0  0  0
 16 19  1  0  0  0  0
 17 18  1  0  0  0  0
 18 41  1  0  0  0  0
 18 42  1  0  0  0  0
 18 43  1  0  0  0  0
 19 44  1  0  0  0  0
 20 21  2  0  0  0  0
 21 22  1  0  0  0  0
 21 26  1  0  0  0  0
 22 23  2  0  0  0  0
 22 45  1  0  0  0  0
 23 24  1  0  0  0  0
 23 46  1  0  0  0  0
 24 25  2  0  0  0  0
 24 47  1  0  0  0  0
 25 26  1  0  0  0  0
 25 48  1  0  0  0  0
 27 28  2  0  0  0  0
 27 49  1  0  0  0  0
 28 29  1  0  0  0  0
 28 50  1  0  0  0  0
 29 30  1  0  0  0  0
M  END
>  <Energy>
67.8981

$$$$