137637833
  -OEChem-03242010103D

 56 58  0     0  0  0  0  0  0999 V2000
    6.0773    0.0047   -0.2032 Br  0  0  0  0  0  0  0  0  0  0  0  0
   -1.5889   -0.0076   -3.0303 O   0  0  0  0  0  0  0  0  0  0  0  0
   -2.0433    2.7273    0.7095 O   0  0  0  0  0  0  0  0  0  0  0  0
   -2.0387   -2.7243    0.7083 O   0  0  0  0  0  0  0  0  0  0  0  0
    0.0471    3.2598   -0.1308 O   0  0  0  0  0  0  0  0  0  0  0  0
    0.0586   -3.2644   -0.1097 O   0  0  0  0  0  0  0  0  0  0  0  0
    1.0429    0.0049    2.5848 N   0  0  0  0  0  0  0  0  0  0  0  0
   -0.1993   -0.0065   -3.0440 N   0  0  0  0  0  0  0  0  0  0  0  0
   -0.9700   -0.0007    0.5933 C   0  0  0  0  0  0  0  0  0  0  0  0
   -0.3122    1.2802    1.1221 C   0  0  0  0  0  0  0  0  0  0  0  0
   -0.3099   -1.2760    1.1266 C   0  0  0  0  0  0  0  0  0  0  0  0
   -0.9504   -0.0033   -0.8940 C   0  0  0  0  0  0  0  0  0  0  0  0
    0.6344    1.2329    2.0872 C   0  0  0  0  0  0  0  0  0  0  0  0
    0.6281   -1.2245    2.0989 C   0  0  0  0  0  0  0  0  0  0  0  0
    0.1591   -0.0039   -1.7570 C   0  0  0  0  0  0  0  0  0  0  0  0
   -2.0243   -0.0056   -1.7444 C   0  0  0  0  0  0  0  0  0  0  0  0
   -0.7134   -2.5423    0.4935 C   0  0  0  0  0  0  0  0  0  0  0  0
   -0.7202    2.5424    0.4840 C   0  0  0  0  0  0  0  0  0  0  0  0
    1.3131    2.4254    2.7051 C   0  0  0  0  0  0  0  0  0  0  0  0
    1.2993   -2.4155    2.7277 C   0  0  0  0  0  0  0  0  0  0  0  0
    1.5512   -0.0020   -1.3906 C   0  0  0  0  0  0  0  0  0  0  0  0
   -3.4802   -0.0066   -1.5490 C   0  0  0  0  0  0  0  0  0  0  0  0
    2.2269   -1.2090   -1.2110 C   0  0  0  0  0  0  0  0  0  0  0  0
    2.2248    1.2070   -1.2167 C   0  0  0  0  0  0  0  0  0  0  0  0
   -2.5854   -3.9229    0.1484 C   0  0  0  0  0  0  0  0  0  0  0  0
   -2.5938    3.9229    0.1468 C   0  0  0  0  0  0  0  0  0  0  0  0
    3.5761   -1.2071   -0.8571 C   0  0  0  0  0  0  0  0  0  0  0  0
    3.5740    1.2090   -0.8630 C   0  0  0  0  0  0  0  0  0  0  0  0
    4.2496    0.0020   -0.6831 C   0  0  0  0  0  0  0  0  0  0  0  0
   -4.0637   -3.9870    0.4682 C   0  0  0  0  0  0  0  0  0  0  0  0
   -4.0690    3.9906    0.4795 C   0  0  0  0  0  0  0  0  0  0  0  0
   -2.0083    0.0002    0.9530 H   0  0  0  0  0  0  0  0  0  0  0  0
    1.7529    0.0065    3.3086 H   0  0  0  0  0  0  0  0  0  0  0  0
    1.2411    2.3785    3.7974 H   0  0  0  0  0  0  0  0  0  0  0  0
    0.8715    3.3770    2.3972 H   0  0  0  0  0  0  0  0  0  0  0  0
    2.3730    2.4396    2.4300 H   0  0  0  0  0  0  0  0  0  0  0  0
    2.3597   -2.4376    2.4549 H   0  0  0  0  0  0  0  0  0  0  0  0
    0.8532   -3.3674    2.4273 H   0  0  0  0  0  0  0  0  0  0  0  0
    1.2255   -2.3590    3.8194 H   0  0  0  0  0  0  0  0  0  0  0  0
   -3.8382    1.0089   -1.3553 H   0  0  0  0  0  0  0  0  0  0  0  0
   -3.7632   -0.6374   -0.7012 H   0  0  0  0  0  0  0  0  0  0  0  0
   -3.9994   -0.3876   -2.4341 H   0  0  0  0  0  0  0  0  0  0  0  0
    1.7388   -2.1601   -1.3902 H   0  0  0  0  0  0  0  0  0  0  0  0
    1.7352    2.1564   -1.4005 H   0  0  0  0  0  0  0  0  0  0  0  0
   -2.0788    4.7947    0.5656 H   0  0  0  0  0  0  0  0  0  0  0  0
   -2.4600    3.9088   -0.9407 H   0  0  0  0  0  0  0  0  0  0  0  0
   -2.4417   -3.9162   -0.9380 H   0  0  0  0  0  0  0  0  0  0  0  0
   -2.0752   -4.7925    0.5776 H   0  0  0  0  0  0  0  0  0  0  0  0
    4.0905   -2.1563   -0.7308 H   0  0  0  0  0  0  0  0  0  0  0  0
    4.0867    2.1597   -0.7412 H   0  0  0  0  0  0  0  0  0  0  0  0
   -4.2244   -3.9735    1.5513 H   0  0  0  0  0  0  0  0  0  0  0  0
   -4.5846   -3.1152    0.0588 H   0  0  0  0  0  0  0  0  0  0  0  0
   -4.5143   -4.8937    0.0551 H   0  0  0  0  0  0  0  0  0  0  0  0
   -4.5944    3.1155    0.0835 H   0  0  0  0  0  0  0  0  0  0  0  0
   -4.2197    3.9874    1.5641 H   0  0  0  0  0  0  0  0  0  0  0  0
   -4.5229    4.8939    0.0624 H   0  0  0  0  0  0  0  0  0  0  0  0
  1 29  1  0  0  0  0
  2  8  1  0  0  0  0
  2 16  1  0  0  0  0
  3 18  1  0  0  0  0
  3 26  1  0  0  0  0
  4 17  1  0  0  0  0
  4 25  1  0  0  0  0
  5 18  2  0  0  0  0
  6 17  2  0  0  0  0
  7 13  1  0  0  0  0
  7 14  1  0  0  0  0
  7 33  1  0  0  0  0
  8 15  2  0  0  0  0
  9 10  1  0  0  0  0
  9 11  1  0  0  0  0
  9 12  1  0  0  0  0
  9 32  1  0  0  0  0
 10 13  2  0  0  0  0
 10 18  1  0  0  0  0
 11 14  2  0  0  0  0
 11 17  1  0  0  0  0
 12 15  1  0  0  0  0
 12 16  2  0  0  0  0
 13 19  1  0  0  0  0
 14 20  1  0  0  0  0
 15 21  1  0  0  0  0
 16 22  1  0  0  0  0
 19 34  1  0  0  0  0
 19 35  1  0  0  0  0
 19 36  1  0  0  0  0
 20 37  1  0  0  0  0
 20 38  1  0  0  0  0
 20 39  1  0  0  0  0
 21 23  2  0  0  0  0
 21 24  1  0  0  0  0
 22 40  1  0  0  0  0
 22 41  1  0  0  0  0
 22 42  1  0  0  0  0
 23 27  1  0  0  0  0
 23 43  1  0  0  0  0
 24 28  2  0  0  0  0
 24 44  1  0  0  0  0
 25 30  1  0  0  0  0
 25 47  1  0  0  0  0
 25 48  1  0  0  0  0
 26 31  1  0  0  0  0
 26 45  1  0  0  0  0
 26 46  1  0  0  0  0
 27 29  2  0  0  0  0
 27 49  1  0  0  0  0
 28 29  1  0  0  0  0
 28 50  1  0  0  0  0
 30 51  1  0  0  0  0
 30 52  1  0  0  0  0
 30 53  1  0  0  0  0
 31 54  1  0  0  0  0
 31 55  1  0  0  0  0
 31 56  1  0  0  0  0
M  END
> <PUBCHEM_COMPOUND_CID>
137637833

> <PUBCHEM_CONFORMER_RMSD>
1

> <PUBCHEM_CONFORMER_DIVERSEORDER>
2
24
10
21
18
17
9
20
12
15
16
6
8
11
1
13
14
23
25
5
7
4
19
22
3

> <PUBCHEM_MMFF94_PARTIAL_CHARGES>
34
1 -0.11
10 -0.12
11 -0.12
12 -0.18
13 -0.04
14 -0.04
15 0.23
16 -0.04
17 0.71
18 0.71
19 0.14
2 -0.02
20 0.14
21 0.05
22 0.18
23 -0.15
24 -0.15
25 0.28
26 0.28
27 -0.15
28 -0.15
29 0.11
3 -0.43
33 0.4
4 -0.43
43 0.15
44 0.15
49 0.15
5 -0.57
50 0.15
6 -0.57
7 -0.6
8 -0.41
9 0.46

> <PUBCHEM_EFFECTIVE_ROTOR_COUNT>
8.4

> <PUBCHEM_PHARMACOPHORE_FEATURES>
9
1 1 hydrophobe
1 5 acceptor
1 6 acceptor
1 7 cation
1 7 donor
1 8 acceptor
5 2 8 12 15 16 rings
6 21 23 24 27 28 29 rings
6 7 9 10 11 13 14 rings

> <PUBCHEM_HEAVY_ATOM_COUNT>
31

> <PUBCHEM_ATOM_DEF_STEREO_COUNT>
0

> <PUBCHEM_ATOM_UDEF_STEREO_COUNT>
0

> <PUBCHEM_BOND_DEF_STEREO_COUNT>
0

> <PUBCHEM_BOND_UDEF_STEREO_COUNT>
0

> <PUBCHEM_ISOTOPIC_ATOM_COUNT>
0

> <PUBCHEM_COMPONENT_COUNT>
1

> <PUBCHEM_CACTVS_TAUTO_COUNT>
-1

> <PUBCHEM_CONFORMER_ID>
08342FC900000002

> <PUBCHEM_MMFF94_ENERGY>
64.7169

> <PUBCHEM_FEATURE_SELFOVERLAP>
45.671

> <PUBCHEM_SHAPE_FINGERPRINT>
11578080 2 18051129490746453605
11961588 58 17914600671004894244
12156800 1 18338498803670853016
12293681 4 18341335578156872917
12467345 10 17693377741684284127
12788726 201 18342448210461397029
13004483 165 18196381535686986110
133893 2 16626854040033106342
15219462 58 17981285080961948290
16945 1 18266482990789891292
19319366 153 17837204884105912849
20600515 1 17267552607864190750
20691752 17 17343182437950122543
23419403 2 17983851461059703882
244849 19 17982716765212891447
35225 105 17689208552500162268
394222 165 17479464434475276529
4340502 62 17827100415107245009
469060 322 16845291670403855190
513532 50 18055331786187833343
5845 1 17688077301391551694
59755656 520 18189343368573357918

> <PUBCHEM_SHAPE_MULTIPOLES>
604.6
6.79
4.86
2.74
6.81
0.02
0.29
0.02
-1.9
-7.46
2.11
0.29
-0.01
-0.01

> <PUBCHEM_SHAPE_SELFOVERLAP>
1280.002

> <PUBCHEM_SHAPE_VOLUME>
345.9

> <PUBCHEM_COORDINATE_TYPE>
2
5
10

$$$$