179
 OpenBabel03292022023D

157164  0  0  1  0  0  0  0  0999 V2000
    6.1760   -8.1173  -12.7265 C   0  0  0  0  0  0  0  0  0  0  0  0
    5.1861   -8.0616  -11.5614 C   0  0  0  0  0  0  0  0  0  0  0  0
    5.6575   -8.7765  -10.3689 O   0  0  0  0  0  0  0  0  0  0  0  0
    4.7668   -9.5285   -9.6907 C   0  0  0  0  0  0  0  0  0  0  0  0
    3.6283   -9.5977  -10.1055 O   0  0  0  0  0  0  0  0  0  0  0  0
    5.2172  -10.4924   -8.5694 C   0  0  0  0  0  0  0  0  0  0  0  0
    5.7715  -10.5564   -7.3066 C   0  0  0  0  0  0  0  0  0  0  0  0
    6.6903   -9.6444   -6.5260 C   0  0  0  0  0  0  0  0  0  0  0  0
    5.4379  -11.7065   -6.5009 N   0  0  0  0  0  0  0  0  0  0  0  0
    4.1851  -12.3183   -6.6560 C   0  0  0  0  0  0  0  0  0  0  0  0
    3.5028  -12.8574   -5.4319 C   0  0  0  0  0  0  0  0  0  0  0  0
    3.6497  -12.2381   -7.8946 C   0  0  0  0  0  0  0  0  0  0  0  0
    2.1871  -11.9006   -8.0148 C   0  0  0  0  0  0  0  0  0  0  0  0
    1.3309  -12.1788   -7.1913 O   0  0  0  0  0  0  0  0  0  0  0  0
    1.9816  -11.1326   -9.1122 O   0  0  0  0  0  0  0  0  0  0  0  0
    0.6793  -10.5495   -9.3580 C   0  0  0  0  0  0  0  0  0  0  0  0
    0.6957   -9.1606   -9.9524 C   0  0  0  0  0  0  0  0  0  0  0  0
    1.3433   -7.9884   -9.5929 C   0  0  0  0  0  0  0  0  0  0  0  0
    0.9410   -7.0685  -10.5171 N   0  0  0  0  0  0  0  0  0  0  0  0
    1.2057   -5.6396  -10.5818 C   0  0  0  0  0  0  0  0  0  0  0  0
    2.6705   -5.2304  -10.7190 C   0  0  0  0  0  0  0  0  0  0  0  0
    3.3579   -5.2887   -9.4609 O   0  0  0  0  0  0  0  0  0  0  0  0
    4.5698   -4.5162   -9.4836 C   0  0  0  0  0  0  0  0  0  0  0  0
    5.4123   -4.7624   -8.2208 C   0  0  0  0  0  0  0  0  0  0  0  0
    6.0480   -6.0506   -8.1674 O   0  0  0  0  0  0  0  0  0  0  0  0
    7.0607   -6.2578   -9.1723 C   0  0  0  0  0  0  0  0  0  0  0  0
    7.6991   -7.6342   -8.9660 C   0  0  0  0  0  0  0  0  0  0  0  0
    8.1579   -8.2706  -10.1781 O   0  0  0  0  0  0  0  0  0  0  0  0
    8.2440   -9.7063  -10.0502 C   0  0  0  0  0  0  0  0  0  0  0  0
    7.8083  -10.5564  -11.2700 C   0  0  0  0  0  0  0  0  0  0  0  0
    8.7002  -10.4812  -12.3685 O   0  0  0  0  0  0  0  0  0  0  0  0
    9.2939  -11.7388  -12.6977 C   0  0  0  0  0  0  0  0  0  0  0  0
   10.6480  -11.8227  -12.0157 C   0  0  0  0  0  0  0  0  0  0  0  0
   11.5333  -12.6305  -12.7885 O   0  0  0  0  0  0  0  0  0  0  0  0
   12.8988  -12.2616  -12.5876 C   0  0  0  0  0  0  0  0  0  0  0  0
   13.3747  -12.6184  -11.1860 C   0  0  0  0  0  0  0  0  0  0  0  0
   14.7582  -12.2535  -10.9993 N   0  0  0  0  0  0  0  0  0  0  0  0
   15.8560  -12.9414  -11.3882 C   0  0  0  0  0  0  0  0  0  0  0  0
   16.8917  -12.0738  -11.1303 C   0  0  0  0  0  0  0  0  0  0  0  0
   18.3318  -12.1798  -11.4761 C   0  0  0  0  0  0  0  0  0  0  0  0
   18.6739  -11.1464  -12.4177 O   0  0  0  0  0  0  0  0  0  0  0  0
   18.4610  -11.4470  -13.7136 C   0  0  0  0  0  0  0  0  0  0  0  0
   18.3500  -12.5714  -14.1572 O   0  0  0  0  0  0  0  0  0  0  0  0
   18.2504  -10.1718  -14.4772 C   0  0  0  0  0  0  0  0  0  0  0  0
   17.5613  -10.1325  -15.6428 C   0  0  0  0  0  0  0  0  0  0  0  0
   17.0122  -11.2995  -16.4307 C   0  0  0  0  0  0  0  0  0  0  0  0
   17.2807   -8.9002  -16.2268 N   0  0  0  0  0  0  0  0  0  0  0  0
   17.4794   -7.6721  -15.6196 C   0  0  0  0  0  0  0  0  0  0  0  0
   16.8821   -6.4845  -16.3407 C   0  0  0  0  0  0  0  0  0  0  0  0
   18.1777   -7.6051  -14.4673 C   0  0  0  0  0  0  0  0  0  0  0  0
   18.4014   -6.2772  -13.7834 C   0  0  0  0  0  0  0  0  0  0  0  0
   18.0320   -5.1941  -14.2029 O   0  0  0  0  0  0  0  0  0  0  0  0
   19.1051   -6.4610  -12.6441 O   0  0  0  0  0  0  0  0  0  0  0  0
   19.6022   -5.2697  -12.0150 C   0  0  0  0  0  0  0  0  0  0  0  0
   20.9549   -4.9246  -12.6111 C   0  0  0  0  0  0  0  0  0  0  0  0
   18.7790   -8.8755  -13.8435 C   0  0  3  0  0  0  0  0  0  0  0  0
   20.2969   -8.8519  -13.9133 C   0  0  0  0  0  0  0  0  0  0  0  0
   21.2939   -8.9832  -12.8729 C   0  0  0  0  0  0  0  0  0  0  0  0
   21.2122   -9.1860  -11.4129 C   0  0  0  0  0  0  0  0  0  0  0  0
   22.2949   -9.7967  -10.7462 C   0  0  0  0  0  0  0  0  0  0  0  0
   22.3129   -9.9426   -9.3552 C   0  0  0  0  0  0  0  0  0  0  0  0
   21.2385   -9.4830   -8.6044 C   0  0  0  0  0  0  0  0  0  0  0  0
   21.2629   -9.6453   -6.7231 Br  0  0  0  0  0  0  0  0  0  0  0  0
   20.1497   -8.8913   -9.2356 C   0  0  0  0  0  0  0  0  0  0  0  0
   20.1410   -8.7447  -10.6289 C   0  0  0  0  0  0  0  0  0  0  0  0
   22.5232   -8.8936  -13.4164 N   0  0  0  0  0  0  0  0  0  0  0  0
   22.3684   -8.7385  -14.7604 O   0  0  0  0  0  0  0  0  0  0  0  0
   21.0531   -8.7163  -15.0701 C   0  0  0  0  0  0  0  0  0  0  0  0
   20.7539   -8.5614  -16.5083 C   0  0  0  0  0  0  0  0  0  0  0  0
   16.3877  -10.9278  -10.5650 N   0  0  0  0  0  0  0  0  0  0  0  0
   15.0714  -11.0505  -10.4887 N   0  0  0  0  0  0  0  0  0  0  0  0
    0.0495   -7.6071  -11.3686 N   0  0  0  0  0  0  0  0  0  0  0  0
   -0.1013   -8.8808  -11.0396 N   0  0  0  0  0  0  0  0  0  0  0  0
    4.6554  -11.8560   -8.9759 C   0  0  3  0  0  0  0  0  0  0  0  0
    5.7620  -12.9589   -9.2688 C   0  0  0  0  0  0  0  0  0  0  0  0
    5.5412  -14.1285  -10.1129 C   0  0  0  0  0  0  0  0  0  0  0  0
    4.3616  -14.6678  -10.8200 C   0  0  0  0  0  0  0  0  0  0  0  0
    3.0964  -14.0786  -10.7896 C   0  0  0  0  0  0  0  0  0  0  0  0
    2.0036  -14.6755  -11.4172 C   0  0  0  0  0  0  0  0  0  0  0  0
    2.1608  -15.8809  -12.1028 C   0  0  0  0  0  0  0  0  0  0  0  0
    0.6726  -16.7073  -12.8924 Br  0  0  0  0  0  0  0  0  0  0  0  0
    3.4160  -16.4644  -12.1863 C   0  0  0  0  0  0  0  0  0  0  0  0
    4.5023  -15.8572  -11.5496 C   0  0  0  0  0  0  0  0  0  0  0  0
    6.6780  -14.8298  -10.2407 N   0  0  0  0  0  0  0  0  0  0  0  0
    7.6186  -14.2181   -9.5106 O   0  0  0  0  0  0  0  0  0  0  0  0
    7.1206  -13.1089   -8.9151 C   0  0  0  0  0  0  0  0  0  0  0  0
    8.2389  -12.4628   -8.1814 C   0  0  0  0  0  0  0  0  0  0  0  0
    5.9592   -7.3441  -13.4715 H   0  0  0  0  0  0  0  0  0  0  0  0
    6.1097   -9.0795  -13.2457 H   0  0  0  0  0  0  0  0  0  0  0  0
    7.2100   -7.9839  -12.4037 H   0  0  0  0  0  0  0  0  0  0  0  0
    4.2164   -8.4206  -11.9229 H   0  0  0  0  0  0  0  0  0  0  0  0
    5.0606   -7.0151  -11.2876 H   0  0  0  0  0  0  0  0  0  0  0  0
    7.5469   -9.3055   -7.0993 H   0  0  0  0  0  0  0  0  0  0  0  0
    7.1975  -10.2281   -5.7386 H   0  0  0  0  0  0  0  0  0  0  0  0
    6.1695   -8.8317   -6.0240 H   0  0  0  0  0  0  0  0  0  0  0  0
    5.7370  -11.6466   -5.5265 H   0  0  0  0  0  0  0  0  0  0  0  0
    4.2392  -13.1377   -4.6698 H   0  0  0  0  0  0  0  0  0  0  0  0
    2.9468  -13.7710   -5.6726 H   0  0  0  0  0  0  0  0  0  0  0  0
    2.8236  -12.1235   -4.9898 H   0  0  0  0  0  0  0  0  0  0  0  0
    0.0636  -10.5385   -8.4522 H   0  0  0  0  0  0  0  0  0  0  0  0
    0.1979  -11.2116  -10.0869 H   0  0  0  0  0  0  0  0  0  0  0  0
    2.0596   -7.7551   -8.8175 H   0  0  0  0  0  0  0  0  0  0  0  0
    0.7507   -5.1909   -9.6915 H   0  0  0  0  0  0  0  0  0  0  0  0
    0.6718   -5.2665  -11.4625 H   0  0  0  0  0  0  0  0  0  0  0  0
    2.6989   -4.1963  -11.0858 H   0  0  0  0  0  0  0  0  0  0  0  0
    3.1890   -5.8604  -11.4470 H   0  0  0  0  0  0  0  0  0  0  0  0
    4.2919   -3.4554   -9.5158 H   0  0  0  0  0  0  0  0  0  0  0  0
    5.1333   -4.7485  -10.3893 H   0  0  0  0  0  0  0  0  0  0  0  0
    4.7685   -4.6923   -7.3435 H   0  0  0  0  0  0  0  0  0  0  0  0
    6.1878   -3.9937   -8.1264 H   0  0  0  0  0  0  0  0  0  0  0  0
    7.8161   -5.4742   -9.1093 H   0  0  0  0  0  0  0  0  0  0  0  0
    6.6013   -6.2181  -10.1551 H   0  0  0  0  0  0  0  0  0  0  0  0
    6.9030   -8.2252   -8.5251 H   0  0  0  0  0  0  0  0  0  0  0  0
    8.5166   -7.5862   -8.2416 H   0  0  0  0  0  0  0  0  0  0  0  0
    7.5895  -10.0309   -9.2473 H   0  0  0  0  0  0  0  0  0  0  0  0
    9.2624   -9.9534   -9.7538 H   0  0  0  0  0  0  0  0  0  0  0  0
    6.8297  -10.2835  -11.6531 H   0  0  0  0  0  0  0  0  0  0  0  0
    7.6771  -11.5924  -10.9557 H   0  0  0  0  0  0  0  0  0  0  0  0
    9.4059  -11.7757  -13.7851 H   0  0  0  0  0  0  0  0  0  0  0  0
    8.6631  -12.5976  -12.4283 H   0  0  0  0  0  0  0  0  0  0  0  0
   10.5361  -12.2713  -11.0217 H   0  0  0  0  0  0  0  0  0  0  0  0
   11.0534  -10.8125  -11.8824 H   0  0  0  0  0  0  0  0  0  0  0  0
   13.0301  -11.1932  -12.8051 H   0  0  0  0  0  0  0  0  0  0  0  0
   13.4895  -12.8014  -13.3365 H   0  0  0  0  0  0  0  0  0  0  0  0
   13.2718  -13.6933  -11.0041 H   0  0  0  0  0  0  0  0  0  0  0  0
   12.7846  -12.1095  -10.4159 H   0  0  0  0  0  0  0  0  0  0  0  0
   15.8132  -13.9163  -11.8553 H   0  0  0  0  0  0  0  0  0  0  0  0
   18.5865  -13.1724  -11.8548 H   0  0  0  0  0  0  0  0  0  0  0  0
   18.9338  -12.0138  -10.5748 H   0  0  0  0  0  0  0  0  0  0  0  0
   17.0913  -12.2697  -15.9486 H   0  0  0  0  0  0  0  0  0  0  0  0
   17.5391  -11.3684  -17.3922 H   0  0  0  0  0  0  0  0  0  0  0  0
   15.9501  -11.1424  -16.6413 H   0  0  0  0  0  0  0  0  0  0  0  0
   16.6846   -8.9128  -17.0494 H   0  0  0  0  0  0  0  0  0  0  0  0
   16.4654   -6.7757  -17.3126 H   0  0  0  0  0  0  0  0  0  0  0  0
   17.6370   -5.7247  -16.5481 H   0  0  0  0  0  0  0  0  0  0  0  0
   16.0614   -6.0536  -15.7560 H   0  0  0  0  0  0  0  0  0  0  0  0
   19.7110   -5.4865  -10.9473 H   0  0  0  0  0  0  0  0  0  0  0  0
   18.8944   -4.4371  -12.1066 H   0  0  0  0  0  0  0  0  0  0  0  0
   21.6582   -5.7500  -12.4612 H   0  0  0  0  0  0  0  0  0  0  0  0
   21.3676   -4.0228  -12.1524 H   0  0  0  0  0  0  0  0  0  0  0  0
   20.8760   -4.7695  -13.6915 H   0  0  0  0  0  0  0  0  0  0  0  0
   18.4288   -8.8713  -12.8094 H   0  0  0  0  0  0  0  0  0  0  0  0
   23.1582  -10.1505  -11.3106 H   0  0  0  0  0  0  0  0  0  0  0  0
   23.1749  -10.3997   -8.8761 H   0  0  0  0  0  0  0  0  0  0  0  0
   19.3055   -8.5236   -8.6573 H   0  0  0  0  0  0  0  0  0  0  0  0
   19.2823   -8.2478  -11.0586 H   0  0  0  0  0  0  0  0  0  0  0  0
   21.6711   -8.4864  -17.0993 H   0  0  0  0  0  0  0  0  0  0  0  0
   20.1751   -7.6516  -16.6921 H   0  0  0  0  0  0  0  0  0  0  0  0
   20.1932   -9.4218  -16.8846 H   0  0  0  0  0  0  0  0  0  0  0  0
    4.1689  -11.7643   -9.9454 H   0  0  0  0  0  0  0  0  0  0  0  0
    2.8836  -13.1586  -10.2950 H   0  0  0  0  0  0  0  0  0  0  0  0
    1.0320  -14.1941  -11.3551 H   0  0  0  0  0  0  0  0  0  0  0  0
    3.5663  -17.3911  -12.7259 H   0  0  0  0  0  0  0  0  0  0  0  0
    5.4710  -16.3552  -11.6278 H   0  0  0  0  0  0  0  0  0  0  0  0
    8.8572  -13.2244   -7.6879 H   0  0  0  0  0  0  0  0  0  0  0  0
    7.9739  -11.7469   -7.4185 H   0  0  0  0  0  0  0  0  0  0  0  0
    8.9180  -11.9826   -8.8930 H   0  0  0  0  0  0  0  0  0  0  0  0
  1  2  1  0  0  0  0
  1 88  1  0  0  0  0
  1 89  1  0  0  0  0
  1 90  1  0  0  0  0
  2  3  1  0  0  0  0
  2 91  1  0  0  0  0
  2 92  1  0  0  0  0
  3  4  1  0  0  0  0
  4  5  2  0  0  0  0
  4  6  1  0  0  0  0
  6  7  2  0  0  0  0
  6 74  1  0  0  0  0
  7  8  1  0  0  0  0
  7  9  1  0  0  0  0
  8 93  1  0  0  0  0
  8 94  1  0  0  0  0
  8 95  1  0  0  0  0
  9 10  1  0  0  0  0
  9 96  1  0  0  0  0
 10 11  1  0  0  0  0
 10 12  2  0  0  0  0
 11 97  1  0  0  0  0
 11 98  1  0  0  0  0
 11 99  1  0  0  0  0
 12 13  1  0  0  0  0
 12 74  1  0  0  0  0
 13 14  2  0  0  0  0
 13 15  1  0  0  0  0
 15 16  1  0  0  0  0
 16 17  1  0  0  0  0
 16100  1  0  0  0  0
 16101  1  0  0  0  0
 17 18  2  0  0  0  0
 17 73  1  0  0  0  0
 18 19  1  0  0  0  0
 18102  1  0  0  0  0
 19 20  1  0  0  0  0
 19 72  1  0  0  0  0
 20 21  1  0  0  0  0
 20103  1  0  0  0  0
 20104  1  0  0  0  0
 21 22  1  0  0  0  0
 21105  1  0  0  0  0
 21106  1  0  0  0  0
 22 23  1  0  0  0  0
 23 24  1  0  0  0  0
 23107  1  0  0  0  0
 23108  1  0  0  0  0
 24 25  1  0  0  0  0
 24109  1  0  0  0  0
 24110  1  0  0  0  0
 25 26  1  0  0  0  0
 26 27  1  0  0  0  0
 26111  1  0  0  0  0
 26112  1  0  0  0  0
 27 28  1  0  0  0  0
 27113  1  0  0  0  0
 27114  1  0  0  0  0
 28 29  1  0  0  0  0
 29 30  1  0  0  0  0
 29115  1  0  0  0  0
 29116  1  0  0  0  0
 30 31  1  0  0  0  0
 30117  1  0  0  0  0
 30118  1  0  0  0  0
 31 32  1  0  0  0  0
 32 33  1  0  0  0  0
 32119  1  0  0  0  0
 32120  1  0  0  0  0
 33 34  1  0  0  0  0
 33121  1  0  0  0  0
 33122  1  0  0  0  0
 34 35  1  0  0  0  0
 35 36  1  0  0  0  0
 35123  1  0  0  0  0
 35124  1  0  0  0  0
 36 37  1  0  0  0  0
 36125  1  0  0  0  0
 36126  1  0  0  0  0
 37 38  1  0  0  0  0
 37 71  1  0  0  0  0
 38 39  2  0  0  0  0
 38127  1  0  0  0  0
 39 40  1  0  0  0  0
 39 70  1  0  0  0  0
 40 41  1  0  0  0  0
 40128  1  0  0  0  0
 40129  1  0  0  0  0
 41 42  1  0  0  0  0
 42 43  2  0  0  0  0
 42 44  1  0  0  0  0
 44 45  2  0  0  0  0
 44 56  1  0  0  0  0
 45 46  1  0  0  0  0
 45 47  1  0  0  0  0
 46130  1  0  0  0  0
 46131  1  0  0  0  0
 46132  1  0  0  0  0
 47 48  1  0  0  0  0
 47133  1  0  0  0  0
 48 49  1  0  0  0  0
 48 50  2  0  0  0  0
 49134  1  0  0  0  0
 49135  1  0  0  0  0
 49136  1  0  0  0  0
 50 51  1  0  0  0  0
 50 56  1  0  0  0  0
 51 52  2  0  0  0  0
 51 53  1  0  0  0  0
 53 54  1  0  0  0  0
 54 55  1  0  0  0  0
 54137  1  0  0  0  0
 54138  1  0  0  0  0
 55139  1  0  0  0  0
 55140  1  0  0  0  0
 55141  1  0  0  0  0
 56 57  1  0  0  0  0
 56142  1  0  0  0  0
 57 58  1  0  0  0  0
 57 68  2  0  0  0  0
 58 59  1  0  0  0  0
 58 66  2  0  0  0  0
 59 60  1  0  0  0  0
 59 65  2  0  0  0  0
 60 61  2  0  0  0  0
 60143  1  0  0  0  0
 61 62  1  0  0  0  0
 61144  1  0  0  0  0
 62 63  1  0  0  0  0
 62 64  2  0  0  0  0
 64 65  1  0  0  0  0
 64145  1  0  0  0  0
 65146  1  0  0  0  0
 66 67  1  0  0  0  0
 67 68  1  0  0  0  0
 68 69  1  0  0  0  0
 69147  1  0  0  0  0
 69148  1  0  0  0  0
 69149  1  0  0  0  0
 70 71  2  0  0  0  0
 72 73  2  0  0  0  0
 74 75  1  0  0  0  0
 74150  1  0  0  0  0
 75 76  1  0  0  0  0
 75 86  2  0  0  0  0
 76 77  1  0  0  0  0
 76 84  2  0  0  0  0
 77 78  1  0  0  0  0
 77 83  2  0  0  0  0
 78 79  2  0  0  0  0
 78151  1  0  0  0  0
 79 80  1  0  0  0  0
 79152  1  0  0  0  0
 80 81  1  0  0  0  0
 80 82  2  0  0  0  0
 82 83  1  0  0  0  0
 82153  1  0  0  0  0
 83154  1  0  0  0  0
 84 85  1  0  0  0  0
 85 86  1  0  0  0  0
 86 87  1  0  0  0  0
 87155  1  0  0  0  0
 87156  1  0  0  0  0
 87157  1  0  0  0  0
M  END
>  <Energy>
256.531

$$$$