71296003
  -OEChem-03242010103D

 41 44  0     0  0  0  0  0  0999 V2000
   -4.0131   -1.7584    1.5431 O   0  0  0  0  0  0  0  0  0  0  0  0
   -1.3061    1.5028   -0.7334 N   0  0  0  0  0  0  0  0  0  0  0  0
    0.3785   -0.1182   -0.4674 N   0  0  0  0  0  0  0  0  0  0  0  0
    2.5986    0.5176    0.2211 N   0  0  0  0  0  0  0  0  0  0  0  0
    2.8663   -4.4303   -0.3059 N   0  0  0  0  0  0  0  0  0  0  0  0
    0.9100    2.2005   -0.0394 C   0  0  0  0  0  0  0  0  0  0  0  0
    0.0342    1.1818   -0.4042 C   0  0  0  0  0  0  0  0  0  0  0  0
    2.2213    1.8071    0.2738 C   0  0  0  0  0  0  0  0  0  0  0  0
    1.6568   -0.3748   -0.1466 C   0  0  0  0  0  0  0  0  0  0  0  0
   -2.5088    0.7893   -0.6094 C   0  0  0  0  0  0  0  0  0  0  0  0
    0.5267    3.5517    0.0191 C   0  0  0  0  0  0  0  0  0  0  0  0
    3.1266    2.7988    0.6435 C   0  0  0  0  0  0  0  0  0  0  0  0
    2.0685   -1.7533   -0.2010 C   0  0  0  0  0  0  0  0  0  0  0  0
    1.4519    4.5218    0.3917 C   0  0  0  0  0  0  0  0  0  0  0  0
    2.7533    4.1446    0.7042 C   0  0  0  0  0  0  0  0  0  0  0  0
   -2.6651   -0.1415    0.4177 C   0  0  0  0  0  0  0  0  0  0  0  0
   -3.5476    1.0113   -1.5136 C   0  0  0  0  0  0  0  0  0  0  0  0
   -3.8603   -0.8502    0.5409 C   0  0  0  0  0  0  0  0  0  0  0  0
   -4.7427    0.3025   -1.3905 C   0  0  0  0  0  0  0  0  0  0  0  0
   -4.8992   -0.6281   -0.3632 C   0  0  0  0  0  0  0  0  0  0  0  0
    3.3859   -2.0776   -0.5057 C   0  0  0  0  0  0  0  0  0  0  0  0
    1.1496   -2.7660    0.0514 C   0  0  0  0  0  0  0  0  0  0  0  0
    3.7310   -3.4189   -0.5452 C   0  0  0  0  0  0  0  0  0  0  0  0
    1.5948   -4.0765   -0.0129 C   0  0  0  0  0  0  0  0  0  0  0  0
   -2.9111   -1.9358    2.4319 C   0  0  0  0  0  0  0  0  0  0  0  0
   -1.3788    2.3080   -1.3494 H   0  0  0  0  0  0  0  0  0  0  0  0
   -0.4835    3.8787   -0.2107 H   0  0  0  0  0  0  0  0  0  0  0  0
    4.1513    2.5297    0.8930 H   0  0  0  0  0  0  0  0  0  0  0  0
    1.1596    5.5663    0.4401 H   0  0  0  0  0  0  0  0  0  0  0  0
   -1.8396   -0.2701    1.1090 H   0  0  0  0  0  0  0  0  0  0  0  0
    3.4816    4.8955    0.9964 H   0  0  0  0  0  0  0  0  0  0  0  0
   -3.4391    1.7330   -2.3192 H   0  0  0  0  0  0  0  0  0  0  0  0
   -5.5515    0.4751   -2.0946 H   0  0  0  0  0  0  0  0  0  0  0  0
   -5.8324   -1.1771   -0.2725 H   0  0  0  0  0  0  0  0  0  0  0  0
    4.1404   -1.3276   -0.7198 H   0  0  0  0  0  0  0  0  0  0  0  0
    0.1125   -2.5681    0.3021 H   0  0  0  0  0  0  0  0  0  0  0  0
    4.7451   -3.7250   -0.7804 H   0  0  0  0  0  0  0  0  0  0  0  0
    0.9182   -4.9030    0.1778 H   0  0  0  0  0  0  0  0  0  0  0  0
   -3.2054   -2.6964    3.1626 H   0  0  0  0  0  0  0  0  0  0  0  0
   -2.6955   -1.0208    2.9941 H   0  0  0  0  0  0  0  0  0  0  0  0
   -2.0293   -2.3213    1.9091 H   0  0  0  0  0  0  0  0  0  0  0  0
  1 18  1  0  0  0  0
  1 25  1  0  0  0  0
  2  7  1  0  0  0  0
  2 10  1  0  0  0  0
  2 26  1  0  0  0  0
  3  7  2  0  0  0  0
  3  9  1  0  0  0  0
  4  8  1  0  0  0  0
  4  9  2  0  0  0  0
  5 23  2  0  0  0  0
  5 24  1  0  0  0  0
  6  7  1  0  0  0  0
  6  8  1  0  0  0  0
  6 11  2  0  0  0  0
  8 12  2  0  0  0  0
  9 13  1  0  0  0  0
 10 16  2  0  0  0  0
 10 17  1  0  0  0  0
 11 14  1  0  0  0  0
 11 27  1  0  0  0  0
 12 15  1  0  0  0  0
 12 28  1  0  0  0  0
 13 21  2  0  0  0  0
 13 22  1  0  0  0  0
 14 15  2  0  0  0  0
 14 29  1  0  0  0  0
 15 31  1  0  0  0  0
 16 18  1  0  0  0  0
 16 30  1  0  0  0  0
 17 19  2  0  0  0  0
 17 32  1  0  0  0  0
 18 20  2  0  0  0  0
 19 20  1  0  0  0  0
 19 33  1  0  0  0  0
 20 34  1  0  0  0  0
 21 23  1  0  0  0  0
 21 35  1  0  0  0  0
 22 24  2  0  0  0  0
 22 36  1  0  0  0  0
 23 37  1  0  0  0  0
 24 38  1  0  0  0  0
 25 39  1  0  0  0  0
 25 40  1  0  0  0  0
 25 41  1  0  0  0  0
M  END
> <PUBCHEM_COMPOUND_CID>
71296003

> <PUBCHEM_CONFORMER_RMSD>
0.8

> <PUBCHEM_CONFORMER_DIVERSEORDER>
1
33
17
9
30
32
6
16
22
19
21
24
28
15
29
10
14
34
13
5
2
12
26
38
11
3
27
20
36
35
7
18
31
4
25
8
37
23

> <PUBCHEM_MMFF94_PARTIAL_CHARGES>
36
1 -0.36
10 0.1
11 -0.15
12 -0.15
14 -0.15
15 -0.15
16 -0.15
17 -0.15
18 0.08
19 -0.15
2 -0.6
20 -0.15
21 -0.15
22 -0.15
23 0.16
24 0.16
25 0.28
26 0.4
27 0.15
28 0.15
29 0.15
3 -0.62
30 0.15
31 0.15
32 0.15
33 0.15
34 0.15
35 0.15
36 0.15
37 0.15
38 0.15
4 -0.62
5 -0.62
7 0.41
8 0.31
9 0.62

> <PUBCHEM_EFFECTIVE_ROTOR_COUNT>
4

> <PUBCHEM_PHARMACOPHORE_FEATURES>
9
1 1 acceptor
1 2 donor
1 5 acceptor
3 2 3 7 cation
3 3 4 9 cation
6 10 16 17 18 19 20 rings
6 3 4 6 7 8 9 rings
6 5 13 21 22 23 24 rings
6 6 8 11 12 14 15 rings

> <PUBCHEM_HEAVY_ATOM_COUNT>
25

> <PUBCHEM_ATOM_DEF_STEREO_COUNT>
0

> <PUBCHEM_ATOM_UDEF_STEREO_COUNT>
0

> <PUBCHEM_BOND_DEF_STEREO_COUNT>
0

> <PUBCHEM_BOND_UDEF_STEREO_COUNT>
0

> <PUBCHEM_ISOTOPIC_ATOM_COUNT>
0

> <PUBCHEM_COMPONENT_COUNT>
1

> <PUBCHEM_CACTVS_TAUTO_COUNT>
3

> <PUBCHEM_CONFORMER_ID>
043FE40300000001

> <PUBCHEM_MMFF94_ENERGY>
100.5293

> <PUBCHEM_FEATURE_SELFOVERLAP>
45.844

> <PUBCHEM_SHAPE_FINGERPRINT>
10411042 1 18124871261720675926
11049842 53 14926166537353639009
114674 6 18333731329627005091
12107183 9 18056487141302041561
12202916 173 17320693199558680939
12363563 72 18197218040359892471
12553582 1 18050006588785007275
12788726 201 17471853606503235011
13140716 1 18053935431715425760
13533116 47 18411423917231950421
138480 1 18340200791588135236
13911987 19 18263664968985946228
13955234 65 18341889736096169137
14363568 33 18267042663694367094
14659021 117 17615963310264907522
14844126 61 17256526314619146506
14866123 147 17763453316522837552
15042514 8 17405146223250898836
15927050 60 17980192308617835372
18915476 22 18338800134207616713
19591789 44 18266462199349219788
1979834 28 17396174642703562299
20028762 73 17984974058284461014
20101258 96 17982737376850303750
20693207 138 18187081720273062703
20832881 197 18047748201182541013
21033648 29 17909535496120047345
21120745 212 17910410389858517004
21133410 171 16746723511181310391
21133410 32 16519672345220238066
21197605 99 17759808435266510763
21202864 24 17329153975107703608
22440779 20 17028582367593651993
23558518 356 17256252540635315886
23559900 14 18337378366983690893
3091708 16 9215437454527952604
3421961 26 18340762659104400325
3886686 26 17119688171654787176
4403749 210 17616517893363813401
5309563 4 18269271262005087886
563151 74 18126870380877675001
6442390 28 17834962245014605236
6669772 16 18198910399946831340
9709674 26 18334852836251282399
9777508 108 17188965160356006352

> <PUBCHEM_SHAPE_MULTIPOLES>
488.69
8.26
6.35
1.25
9.86
0.22
0.51
2.78
-0.41
-9.91
0.68
1.69
0.39
2.68

> <PUBCHEM_SHAPE_SELFOVERLAP>
1089.173

> <PUBCHEM_SHAPE_VOLUME>
259.1

> <PUBCHEM_COORDINATE_TYPE>
2
5
10

$$$$