183
 OpenBabel03292022023D

 40 43  0  0  0  0  0  0  0  0999 V2000
    5.1186   -1.7385    1.4703 O   0  0  0  0  0  0  0  0  0  0  0  0
    4.3927   -0.9695    0.8477 C   0  0  0  0  0  0  0  0  0  0  0  0
    3.1038   -1.2514    0.4296 N   0  0  0  0  0  0  0  0  0  0  0  0
    2.3737   -2.4395    0.7223 C   0  0  0  0  0  0  0  0  0  0  0  0
    2.7519   -3.2583    1.7980 C   0  0  0  0  0  0  0  0  0  0  0  0
    2.0680   -4.4360    2.0995 C   0  0  0  0  0  0  0  0  0  0  0  0
    0.9748   -4.8153    1.3365 C   0  0  0  0  0  0  0  0  0  0  0  0
    0.5609   -4.0077    0.2768 C   0  0  0  0  0  0  0  0  0  0  0  0
    1.2421   -2.8134   -0.0441 C   0  0  0  0  0  0  0  0  0  0  0  0
    0.7448   -2.0216   -1.1664 C   0  0  0  0  0  0  0  0  0  0  0  0
   -0.2670   -2.4339   -2.0017 N   0  0  0  0  0  0  0  0  0  0  0  0
   -0.4986   -1.4391   -2.8476 N   0  0  0  0  0  0  0  0  0  0  0  0
    0.3622   -0.4593   -2.4897 N   0  0  0  0  0  0  0  0  0  0  0  0
    0.3681    0.8361   -3.0515 C   0  0  0  0  0  0  0  0  0  0  0  0
   -0.5679    1.2020   -4.0256 C   0  0  0  0  0  0  0  0  0  0  0  0
   -0.5677    2.5087   -4.5198 C   0  0  0  0  0  0  0  0  0  0  0  0
    0.3630    3.4399   -4.0534 C   0  0  0  0  0  0  0  0  0  0  0  0
    1.3027    3.0714   -3.0930 C   0  0  0  0  0  0  0  0  0  0  0  0
    1.3065    1.7733   -2.5915 C   0  0  0  0  0  0  0  0  0  0  0  0
    1.1943   -0.7978   -1.4768 N   0  0  0  0  0  0  0  0  0  0  0  0
    4.9581    0.3644    0.4767 C   0  0  0  0  0  0  0  0  0  0  0  0
    6.2965    0.6141    0.7852 C   0  0  0  0  0  0  0  0  0  0  0  0
    6.8305    1.8632    0.4999 C   0  0  0  0  0  0  0  0  0  0  0  0
    6.0138    2.8250   -0.0785 C   0  0  0  0  0  0  0  0  0  0  0  0
    4.6939    2.4902   -0.3571 C   0  0  0  0  0  0  0  0  0  0  0  0
    4.1377    1.2798   -0.1042 N   0  0  0  0  0  0  0  0  0  0  0  0
    2.6928   -0.6036   -0.2455 H   0  0  0  0  0  0  0  0  0  0  0  0
    3.5770   -2.9892    2.4497 H   0  0  0  0  0  0  0  0  0  0  0  0
    2.3981   -5.0463    2.9364 H   0  0  0  0  0  0  0  0  0  0  0  0
    0.4419   -5.7330    1.5699 H   0  0  0  0  0  0  0  0  0  0  0  0
   -0.3075   -4.3227   -0.2997 H   0  0  0  0  0  0  0  0  0  0  0  0
   -1.3090    0.4960   -4.3953 H   0  0  0  0  0  0  0  0  0  0  0  0
   -1.3011    2.8065   -5.2653 H   0  0  0  0  0  0  0  0  0  0  0  0
    0.3538    4.4564   -4.4373 H   0  0  0  0  0  0  0  0  0  0  0  0
    2.0261    3.7951   -2.7280 H   0  0  0  0  0  0  0  0  0  0  0  0
    2.0418    1.5063   -1.8346 H   0  0  0  0  0  0  0  0  0  0  0  0
    6.9104   -0.1521    1.2502 H   0  0  0  0  0  0  0  0  0  0  0  0
    7.8686    2.0796    0.7373 H   0  0  0  0  0  0  0  0  0  0  0  0
    6.3987    3.8145   -0.3020 H   0  0  0  0  0  0  0  0  0  0  0  0
    4.0286    3.2254   -0.8027 H   0  0  0  0  0  0  0  0  0  0  0  0
  1  2  2  0  0  0  0
  2  3  1  0  0  0  0
  2 21  1  0  0  0  0
  3  4  1  0  0  0  0
  3 27  1  0  0  0  0
  4  5  1  0  0  0  0
  4  9  2  0  0  0  0
  5  6  2  0  0  0  0
  5 28  1  0  0  0  0
  6  7  1  0  0  0  0
  6 29  1  0  0  0  0
  7  8  2  0  0  0  0
  7 30  1  0  0  0  0
  8  9  1  0  0  0  0
  8 31  1  0  0  0  0
  9 10  1  0  0  0  0
 10 11  1  0  0  0  0
 10 20  2  0  0  0  0
 11 12  2  0  0  0  0
 12 13  1  0  0  0  0
 13 14  1  0  0  0  0
 13 20  1  0  0  0  0
 14 15  1  0  0  0  0
 14 19  2  0  0  0  0
 15 16  2  0  0  0  0
 15 32  1  0  0  0  0
 16 17  1  0  0  0  0
 16 33  1  0  0  0  0
 17 18  2  0  0  0  0
 17 34  1  0  0  0  0
 18 19  1  0  0  0  0
 18 35  1  0  0  0  0
 19 36  1  0  0  0  0
 21 22  1  0  0  0  0
 21 26  2  0  0  0  0
 22 23  2  0  0  0  0
 22 37  1  0  0  0  0
 23 24  1  0  0  0  0
 23 38  1  0  0  0  0
 24 25  2  0  0  0  0
 24 39  1  0  0  0  0
 25 26  1  0  0  0  0
 25 40  1  0  0  0  0
M  END
>  <Energy>
119.309

$$$$