11
 OpenBabel03292021423D

105110  0  0  0  0  0  0  0  0999 V2000
    1.5919   -4.1077   -4.6382 C   0  0  0  0  0  0  0  0  0  0  0  0
    3.0037   -3.9409   -4.6883 O   0  0  0  0  0  0  0  0  0  0  0  0
    3.3594   -2.5659   -4.7900 C   0  0  0  0  0  0  0  0  0  0  0  0
    4.8775   -2.4440   -4.8397 C   0  0  0  0  0  0  0  0  0  0  0  0
    5.2240   -1.0635   -4.9414 O   0  0  0  0  0  0  0  0  0  0  0  0
    6.6365   -0.8861   -4.9939 C   0  0  0  0  0  0  0  0  0  0  0  0
    6.9348    0.6009   -5.1023 C   0  0  0  0  0  0  0  0  0  0  0  0
    8.3437    0.7893   -5.1542 O   0  0  0  0  0  0  0  0  0  0  0  0
    8.6771    2.1717   -5.2477 C   0  0  0  0  0  0  0  0  0  0  0  0
   10.1900    2.2911   -5.2842 C   0  0  0  0  0  0  0  0  0  0  0  0
   10.5478    3.6693   -5.3307 O   0  0  0  0  0  0  0  0  0  0  0  0
   11.8754    3.9596   -5.5043 C   0  0  0  0  0  0  0  0  0  0  0  0
   12.8660    2.9644   -5.4641 C   0  0  0  0  0  0  0  0  0  0  0  0
   14.2035    3.2744   -5.6970 C   0  0  0  0  0  0  0  0  0  0  0  0
   14.5725    4.6002   -5.9320 C   0  0  0  0  0  0  0  0  0  0  0  0
   13.6091    5.6042   -5.9288 C   0  0  0  0  0  0  0  0  0  0  0  0
   12.2556    5.2973   -5.7259 C   0  0  0  0  0  0  0  0  0  0  0  0
   11.4675    6.4165   -5.7938 O   0  0  0  0  0  0  0  0  0  0  0  0
   10.0671    6.2820   -5.6181 C   0  0  0  0  0  0  0  0  0  0  0  0
   16.0202    4.8561   -6.2256 C   0  0  0  0  0  0  0  0  0  0  0  0
   16.5043    3.7497   -7.1712 C   0  0  0  0  0  0  0  0  0  0  0  0
   16.3119    2.3651   -6.6958 N   0  0  0  0  0  0  0  0  0  0  0  0
   17.5552    1.7358   -6.2354 C   0  0  0  0  0  0  0  0  0  0  0  0
   18.6007    1.5234   -7.3425 C   0  0  0  0  0  0  0  0  0  0  0  0
   19.8413    0.8925   -6.7665 C   0  0  0  0  0  0  0  0  0  0  0  0
   19.7892   -0.4157   -6.2820 C   0  0  0  0  0  0  0  0  0  0  0  0
   20.9116   -0.9988   -5.7043 C   0  0  0  0  0  0  0  0  0  0  0  0
   22.1105   -0.2947   -5.6106 C   0  0  0  0  0  0  0  0  0  0  0  0
   23.2950   -0.8565   -5.0899 N   0  0  0  0  0  0  0  0  0  0  0  0
   23.5081   -2.2045   -4.8320 C   0  0  0  0  0  0  0  0  0  0  0  0
   22.6763   -3.0921   -4.9249 O   0  0  0  0  0  0  0  0  0  0  0  0
   24.8912   -2.5920   -4.4199 C   0  0  0  0  0  0  0  0  0  0  0  0
   26.0036   -1.7772   -4.6373 C   0  0  0  0  0  0  0  0  0  0  0  0
   27.2681   -2.2048   -4.2320 C   0  0  0  0  0  0  0  0  0  0  0  0
   27.4425   -3.4616   -3.6272 C   0  0  0  0  0  0  0  0  0  0  0  0
   28.8093   -3.9293   -3.2842 C   0  0  0  0  0  0  0  0  0  0  0  0
   29.0486   -4.7743   -2.4400 O   0  0  0  0  0  0  0  0  0  0  0  0
   29.7046   -3.3128   -4.0952 O   0  0  0  0  0  0  0  0  0  0  0  0
   31.0618   -3.7063   -3.9033 C   0  0  0  0  0  0  0  0  0  0  0  0
   26.3376   -4.3083   -3.4363 C   0  0  0  0  0  0  0  0  0  0  0  0
   26.4998   -5.5982   -2.8589 N   0  0  0  0  0  0  0  0  0  0  0  0
   25.8369   -6.7137   -3.3398 C   0  0  0  0  0  0  0  0  0  0  0  0
   25.1192   -6.6919   -4.3418 O   0  0  0  0  0  0  0  0  0  0  0  0
   26.0584   -8.0296   -2.6670 C   0  0  0  0  0  0  0  0  0  0  0  0
   25.2624   -9.0968   -3.1053 C   0  0  0  0  0  0  0  0  0  0  0  0
   25.4601  -10.3904   -2.6173 C   0  0  0  0  0  0  0  0  0  0  0  0
   26.4373  -10.6641   -1.6794 C   0  0  0  0  0  0  0  0  0  0  0  0
   26.6444  -11.9404   -1.3151 N   0  0  0  0  0  0  0  0  0  0  0  0
   27.5866  -12.1873   -0.3823 C   0  0  0  0  0  0  0  0  0  0  0  0
   28.3017  -11.1980    0.2632 C   0  0  0  0  0  0  0  0  0  0  0  0
   28.0934   -9.8782   -0.1275 C   0  0  0  0  0  0  0  0  0  0  0  0
   27.1790   -9.5845   -1.1517 C   0  0  0  0  0  0  0  0  0  0  0  0
   27.0003   -8.2741   -1.6602 C   0  0  0  0  0  0  0  0  0  0  0  0
   25.0690   -3.8599   -3.8360 C   0  0  0  0  0  0  0  0  0  0  0  0
   22.1623    1.0259   -6.0744 C   0  0  0  0  0  0  0  0  0  0  0  0
   21.0359    1.6134   -6.6539 C   0  0  0  0  0  0  0  0  0  0  0  0
   15.2869    2.2281   -5.6396 C   0  0  0  0  0  0  0  0  0  0  0  0
    1.3742   -5.1732   -4.5596 H   0  0  0  0  0  0  0  0  0  0  0  0
    1.1295   -3.7209   -5.5528 H   0  0  0  0  0  0  0  0  0  0  0  0
    1.1782   -3.5981   -3.7624 H   0  0  0  0  0  0  0  0  0  0  0  0
    2.9724   -2.0089   -3.9291 H   0  0  0  0  0  0  0  0  0  0  0  0
    2.9241   -2.1268   -5.6949 H   0  0  0  0  0  0  0  0  0  0  0  0
    5.2696   -2.9948   -5.7021 H   0  0  0  0  0  0  0  0  0  0  0  0
    5.3181   -2.8765   -3.9343 H   0  0  0  0  0  0  0  0  0  0  0  0
    7.0547   -1.4159   -5.8584 H   0  0  0  0  0  0  0  0  0  0  0  0
    7.1048   -1.2969   -4.0911 H   0  0  0  0  0  0  0  0  0  0  0  0
    6.5160    1.1287   -4.2372 H   0  0  0  0  0  0  0  0  0  0  0  0
    6.4668    1.0108   -6.0051 H   0  0  0  0  0  0  0  0  0  0  0  0
    8.2783    2.7193   -4.3858 H   0  0  0  0  0  0  0  0  0  0  0  0
    8.2448    2.6065   -6.1567 H   0  0  0  0  0  0  0  0  0  0  0  0
   10.5598    1.7558   -6.1689 H   0  0  0  0  0  0  0  0  0  0  0  0
   10.6020    1.8191   -4.3834 H   0  0  0  0  0  0  0  0  0  0  0  0
   12.6261    1.9257   -5.2633 H   0  0  0  0  0  0  0  0  0  0  0  0
   13.8975    6.6365   -6.1142 H   0  0  0  0  0  0  0  0  0  0  0  0
    9.6302    7.2827   -5.6885 H   0  0  0  0  0  0  0  0  0  0  0  0
    9.8265    5.8948   -4.6233 H   0  0  0  0  0  0  0  0  0  0  0  0
    9.6238    5.6788   -6.4163 H   0  0  0  0  0  0  0  0  0  0  0  0
   16.5979    4.8546   -5.2937 H   0  0  0  0  0  0  0  0  0  0  0  0
   16.1549    5.8301   -6.7085 H   0  0  0  0  0  0  0  0  0  0  0  0
   17.5406    3.9643   -7.4440 H   0  0  0  0  0  0  0  0  0  0  0  0
   15.9391    3.8278   -8.1113 H   0  0  0  0  0  0  0  0  0  0  0  0
   17.3018    0.7485   -5.8240 H   0  0  0  0  0  0  0  0  0  0  0  0
   17.9912    2.3121   -5.4081 H   0  0  0  0  0  0  0  0  0  0  0  0
   18.8771    2.4642   -7.8282 H   0  0  0  0  0  0  0  0  0  0  0  0
   18.2003    0.8757   -8.1320 H   0  0  0  0  0  0  0  0  0  0  0  0
   18.8708   -0.9942   -6.3445 H   0  0  0  0  0  0  0  0  0  0  0  0
   20.8032   -2.0086   -5.3237 H   0  0  0  0  0  0  0  0  0  0  0  0
   24.0543   -0.2063   -4.9610 H   0  0  0  0  0  0  0  0  0  0  0  0
   25.9340   -0.8270   -5.1524 H   0  0  0  0  0  0  0  0  0  0  0  0
   28.1208   -1.5567   -4.4223 H   0  0  0  0  0  0  0  0  0  0  0  0
   31.6599   -3.2247   -4.6817 H   0  0  0  0  0  0  0  0  0  0  0  0
   31.1739   -4.7905   -4.0001 H   0  0  0  0  0  0  0  0  0  0  0  0
   31.4127   -3.3594   -2.9272 H   0  0  0  0  0  0  0  0  0  0  0  0
   27.3639   -5.7421   -2.3412 H   0  0  0  0  0  0  0  0  0  0  0  0
   24.4874   -8.9347   -3.8539 H   0  0  0  0  0  0  0  0  0  0  0  0
   24.8423  -11.2025   -2.9925 H   0  0  0  0  0  0  0  0  0  0  0  0
   27.7528  -13.2383   -0.1631 H   0  0  0  0  0  0  0  0  0  0  0  0
   29.0128  -11.4508    1.0413 H   0  0  0  0  0  0  0  0  0  0  0  0
   28.6490   -9.0860    0.3670 H   0  0  0  0  0  0  0  0  0  0  0  0
   27.6321   -7.4794   -1.2754 H   0  0  0  0  0  0  0  0  0  0  0  0
   24.1980   -4.4995   -3.6888 H   0  0  0  0  0  0  0  0  0  0  0  0
   23.0809    1.6020   -6.0172 H   0  0  0  0  0  0  0  0  0  0  0  0
   21.1008    2.6371   -7.0241 H   0  0  0  0  0  0  0  0  0  0  0  0
   15.7341    2.2984   -4.6377 H   0  0  0  0  0  0  0  0  0  0  0  0
   14.8447    1.2272   -5.7225 H   0  0  0  0  0  0  0  0  0  0  0  0
  1  2  1  0  0  0  0
  1 58  1  0  0  0  0
  1 59  1  0  0  0  0
  1 60  1  0  0  0  0
  2  3  1  0  0  0  0
  3  4  1  0  0  0  0
  3 61  1  0  0  0  0
  3 62  1  0  0  0  0
  4  5  1  0  0  0  0
  4 63  1  0  0  0  0
  4 64  1  0  0  0  0
  5  6  1  0  0  0  0
  6  7  1  0  0  0  0
  6 65  1  0  0  0  0
  6 66  1  0  0  0  0
  7  8  1  0  0  0  0
  7 67  1  0  0  0  0
  7 68  1  0  0  0  0
  8  9  1  0  0  0  0
  9 10  1  0  0  0  0
  9 69  1  0  0  0  0
  9 70  1  0  0  0  0
 10 11  1  0  0  0  0
 10 71  1  0  0  0  0
 10 72  1  0  0  0  0
 11 12  1  0  0  0  0
 12 13  1  0  0  0  0
 12 17  2  0  0  0  0
 13 14  2  0  0  0  0
 13 73  1  0  0  0  0
 14 15  1  0  0  0  0
 14 57  1  0  0  0  0
 15 16  2  0  0  0  0
 15 20  1  0  0  0  0
 16 17  1  0  0  0  0
 16 74  1  0  0  0  0
 17 18  1  0  0  0  0
 18 19  1  0  0  0  0
 19 75  1  0  0  0  0
 19 76  1  0  0  0  0
 19 77  1  0  0  0  0
 20 21  1  0  0  0  0
 20 78  1  0  0  0  0
 20 79  1  0  0  0  0
 21 22  1  0  0  0  0
 21 80  1  0  0  0  0
 21 81  1  0  0  0  0
 22 23  1  0  0  0  0
 22 57  1  0  0  0  0
 23 24  1  0  0  0  0
 23 82  1  0  0  0  0
 23 83  1  0  0  0  0
 24 25  1  0  0  0  0
 24 84  1  0  0  0  0
 24 85  1  0  0  0  0
 25 26  1  0  0  0  0
 25 56  2  0  0  0  0
 26 27  2  0  0  0  0
 26 86  1  0  0  0  0
 27 28  1  0  0  0  0
 27 87  1  0  0  0  0
 28 29  1  0  0  0  0
 28 55  2  0  0  0  0
 29 30  1  0  0  0  0
 29 88  1  0  0  0  0
 30 31  2  0  0  0  0
 30 32  1  0  0  0  0
 32 33  1  0  0  0  0
 32 54  2  0  0  0  0
 33 34  2  0  0  0  0
 33 89  1  0  0  0  0
 34 35  1  0  0  0  0
 34 90  1  0  0  0  0
 35 36  1  0  0  0  0
 35 40  2  0  0  0  0
 36 37  2  0  0  0  0
 36 38  1  0  0  0  0
 38 39  1  0  0  0  0
 39 91  1  0  0  0  0
 39 92  1  0  0  0  0
 39 93  1  0  0  0  0
 40 41  1  0  0  0  0
 40 54  1  0  0  0  0
 41 42  1  0  0  0  0
 41 94  1  0  0  0  0
 42 43  2  0  0  0  0
 42 44  1  0  0  0  0
 44 45  1  0  0  0  0
 44 53  2  0  0  0  0
 45 46  2  0  0  0  0
 45 95  1  0  0  0  0
 46 47  1  0  0  0  0
 46 96  1  0  0  0  0
 47 48  1  0  0  0  0
 47 52  2  0  0  0  0
 48 49  2  0  0  0  0
 49 50  1  0  0  0  0
 49 97  1  0  0  0  0
 50 51  2  0  0  0  0
 50 98  1  0  0  0  0
 51 52  1  0  0  0  0
 51 99  1  0  0  0  0
 52 53  1  0  0  0  0
 53100  1  0  0  0  0
 54101  1  0  0  0  0
 55 56  1  0  0  0  0
 55102  1  0  0  0  0
 56103  1  0  0  0  0
 57104  1  0  0  0  0
 57105  1  0  0  0  0
M  END
>  <Energy>
232.014

$$$$