137644305
  -OEChem-03242010103D

 71 75  0     1  0  0  0  0  0999 V2000
    8.0238    2.1064   -0.6423 O   0  0  0  0  0  0  0  0  0  0  0  0
    8.5450    0.2570    1.3640 O   0  0  0  0  0  0  0  0  0  0  0  0
   -5.1386    1.1354   -0.9447 O   0  0  0  0  0  0  0  0  0  0  0  0
   -3.9357   -0.8131    2.3232 O   0  0  0  0  0  0  0  0  0  0  0  0
    1.1132   -4.6502   -0.2903 O   0  5  0  0  0  0  0  0  0  0  0  0
    0.5939   -4.5633   -2.4214 O   0  0  0  0  0  0  0  0  0  0  0  0
    2.2123    0.4796    0.3674 N   0  0  1  0  0  0  0  0  0  0  0  0
   -0.9897    2.1066   -0.8564 N   0  0  0  0  0  0  0  0  0  0  0  0
   -1.1030    2.1483   -2.1938 N   0  0  0  0  0  0  0  0  0  0  0  0
   -2.3965    2.2567   -2.4769 N   0  0  0  0  0  0  0  0  0  0  0  0
   -4.0660   -1.0217   -0.0104 N   0  0  0  0  0  0  0  0  0  0  0  0
    0.3737   -4.2570   -1.2246 N   0  3  0  0  0  0  0  0  0  0  0  0
    2.5182   -0.9007    0.7629 C   0  0  0  0  0  0  0  0  0  0  0  0
    3.2515    0.9901   -0.5442 C   0  0  0  0  0  0  0  0  0  0  0  0
    3.7976   -0.9294    1.6051 C   0  0  0  0  0  0  0  0  0  0  0  0
    4.6547    0.8110   -0.0116 C   0  0  0  0  0  0  0  0  0  0  0  0
    4.9229   -0.1409    0.9871 C   0  0  0  0  0  0  0  0  0  0  0  0
    0.8963    0.5588   -0.2657 C   0  0  0  0  0  0  0  0  0  0  0  0
    0.3634    1.9897   -0.2010 C   0  0  0  0  0  0  0  0  0  0  0  0
    5.7102    1.5523   -0.5600 C   0  0  0  0  0  0  0  0  0  0  0  0
    6.2345   -0.3108    1.4486 C   0  0  0  0  0  0  0  0  0  0  0  0
    7.0142    1.3693   -0.1006 C   0  0  0  0  0  0  0  0  0  0  0  0
    7.2757    0.4405    0.9042 C   0  0  0  0  0  0  0  0  0  0  0  0
   -2.2040    2.1870   -0.2472 C   0  0  0  0  0  0  0  0  0  0  0  0
   -3.0844    2.2818   -1.2955 C   0  0  0  0  0  0  0  0  0  0  0  0
   -4.5481    2.3972   -1.2679 C   0  0  0  0  0  0  0  0  0  0  0  0
    7.6709    3.0349   -1.6659 C   0  0  0  0  0  0  0  0  0  0  0  0
    8.7270   -0.7130    2.3938 C   0  0  0  0  0  0  0  0  0  0  0  0
   -5.9598    1.1092    0.1475 C   0  0  0  0  0  0  0  0  0  0  0  0
   -5.6741    0.2882    1.2383 C   0  0  0  0  0  0  0  0  0  0  0  0
   -7.0949    1.9196    0.1630 C   0  0  0  0  0  0  0  0  0  0  0  0
   -6.5235    0.2776    2.3447 C   0  0  0  0  0  0  0  0  0  0  0  0
   -4.4935   -0.5646    1.2432 C   0  0  0  0  0  0  0  0  0  0  0  0
   -7.9444    1.9092    1.2695 C   0  0  0  0  0  0  0  0  0  0  0  0
   -7.6586    1.0882    2.3603 C   0  0  0  0  0  0  0  0  0  0  0  0
   -2.9481   -1.8362   -0.3161 C   0  0  0  0  0  0  0  0  0  0  0  0
   -2.1120   -2.2852    0.7062 C   0  0  0  0  0  0  0  0  0  0  0  0
   -2.6836   -2.1894   -1.6393 C   0  0  0  0  0  0  0  0  0  0  0  0
   -0.7467   -3.4405   -0.9182 C   0  0  0  0  0  0  0  0  0  0  0  0
   -1.0113   -3.0873    0.4051 C   0  0  0  0  0  0  0  0  0  0  0  0
   -1.5829   -2.9915   -1.9403 C   0  0  0  0  0  0  0  0  0  0  0  0
    2.6273   -1.5443   -0.1206 H   0  0  0  0  0  0  0  0  0  0  0  0
    1.7084   -1.3208    1.3720 H   0  0  0  0  0  0  0  0  0  0  0  0
    3.0940    2.0622   -0.7073 H   0  0  0  0  0  0  0  0  0  0  0  0
    3.1998    0.4865   -1.5190 H   0  0  0  0  0  0  0  0  0  0  0  0
    4.1052   -1.9730    1.7417 H   0  0  0  0  0  0  0  0  0  0  0  0
    3.5917   -0.5082    2.5974 H   0  0  0  0  0  0  0  0  0  0  0  0
    0.9103    0.1803   -1.2961 H   0  0  0  0  0  0  0  0  0  0  0  0
    0.1792   -0.0706    0.2771 H   0  0  0  0  0  0  0  0  0  0  0  0
    0.9890    2.7130   -0.7339 H   0  0  0  0  0  0  0  0  0  0  0  0
    0.2249    2.3297    0.8316 H   0  0  0  0  0  0  0  0  0  0  0  0
    5.4471    2.2554   -1.3436 H   0  0  0  0  0  0  0  0  0  0  0  0
    6.3756   -1.0445    2.2356 H   0  0  0  0  0  0  0  0  0  0  0  0
   -2.3300    2.1689    0.8260 H   0  0  0  0  0  0  0  0  0  0  0  0
   -4.8333    3.1858   -0.5593 H   0  0  0  0  0  0  0  0  0  0  0  0
   -4.9260    2.6941   -2.2526 H   0  0  0  0  0  0  0  0  0  0  0  0
    8.5939    3.5334   -1.9801 H   0  0  0  0  0  0  0  0  0  0  0  0
    7.0013    3.8160   -1.2898 H   0  0  0  0  0  0  0  0  0  0  0  0
    7.2679    2.5282   -2.5495 H   0  0  0  0  0  0  0  0  0  0  0  0
    8.1977   -0.4326    3.3109 H   0  0  0  0  0  0  0  0  0  0  0  0
    9.7947   -0.7281    2.6364 H   0  0  0  0  0  0  0  0  0  0  0  0
    8.4656   -1.7200    2.0512 H   0  0  0  0  0  0  0  0  0  0  0  0
   -7.3350    2.5574   -0.6835 H   0  0  0  0  0  0  0  0  0  0  0  0
   -6.3232   -0.3585    3.2031 H   0  0  0  0  0  0  0  0  0  0  0  0
   -8.8295    2.5385    1.2807 H   0  0  0  0  0  0  0  0  0  0  0  0
   -8.3210    1.0788    3.2209 H   0  0  0  0  0  0  0  0  0  0  0  0
   -4.6217   -0.7640   -0.8224 H   0  0  0  0  0  0  0  0  0  0  0  0
   -2.2501   -2.0528    1.7524 H   0  0  0  0  0  0  0  0  0  0  0  0
   -3.3266   -1.8447   -2.4451 H   0  0  0  0  0  0  0  0  0  0  0  0
   -0.3797   -3.4178    1.2260 H   0  0  0  0  0  0  0  0  0  0  0  0
   -1.4073   -3.2460   -2.9824 H   0  0  0  0  0  0  0  0  0  0  0  0
  1 22  1  0  0  0  0
  1 27  1  0  0  0  0
  2 23  1  0  0  0  0
  2 28  1  0  0  0  0
  3 26  1  0  0  0  0
  3 29  1  0  0  0  0
  4 33  2  0  0  0  0
  5 12  1  0  0  0  0
  6 12  2  0  0  0  0
  7 13  1  0  0  0  0
  7 14  1  0  0  0  0
  7 18  1  0  0  0  0
  8  9  1  0  0  0  0
  8 19  1  0  0  0  0
  8 24  1  0  0  0  0
  9 10  2  0  0  0  0
 10 25  1  0  0  0  0
 11 33  1  0  0  0  0
 11 36  1  0  0  0  0
 11 67  1  0  0  0  0
 12 39  1  0  0  0  0
 13 15  1  0  0  0  0
 13 42  1  0  0  0  0
 13 43  1  0  0  0  0
 14 16  1  0  0  0  0
 14 44  1  0  0  0  0
 14 45  1  0  0  0  0
 15 17  1  0  0  0  0
 15 46  1  0  0  0  0
 15 47  1  0  0  0  0
 16 17  1  0  0  0  0
 16 20  2  0  0  0  0
 17 21  2  0  0  0  0
 18 19  1  0  0  0  0
 18 48  1  0  0  0  0
 18 49  1  0  0  0  0
 19 50  1  0  0  0  0
 19 51  1  0  0  0  0
 20 22  1  0  0  0  0
 20 52  1  0  0  0  0
 21 23  1  0  0  0  0
 21 53  1  0  0  0  0
 22 23  2  0  0  0  0
 24 25  2  0  0  0  0
 24 54  1  0  0  0  0
 25 26  1  0  0  0  0
 26 55  1  0  0  0  0
 26 56  1  0  0  0  0
 27 57  1  0  0  0  0
 27 58  1  0  0  0  0
 27 59  1  0  0  0  0
 28 60  1  0  0  0  0
 28 61  1  0  0  0  0
 28 62  1  0  0  0  0
 29 30  1  0  0  0  0
 29 31  2  0  0  0  0
 30 32  2  0  0  0  0
 30 33  1  0  0  0  0
 31 34  1  0  0  0  0
 31 63  1  0  0  0  0
 32 35  1  0  0  0  0
 32 64  1  0  0  0  0
 34 35  2  0  0  0  0
 34 65  1  0  0  0  0
 35 66  1  0  0  0  0
 36 37  2  0  0  0  0
 36 38  1  0  0  0  0
 37 40  1  0  0  0  0
 37 68  1  0  0  0  0
 38 41  2  0  0  0  0
 38 69  1  0  0  0  0
 39 40  2  0  0  0  0
 39 41  1  0  0  0  0
 40 70  1  0  0  0  0
 41 71  1  0  0  0  0
M  CHG  2   5  -1  12   1
M  END
> <PUBCHEM_COMPOUND_CID>
137644305

> <PUBCHEM_CONFORMER_RMSD>
1.4

> <PUBCHEM_CONFORMER_DIVERSEORDER>
15
71
125
7
137
75
174
20
135
134
168
164
130
102
41
157
39
28
3
128
143
32
80
109
65
115
138
162
34
94
64
10
44
99
35
114
119
91
1
122
150
61
144
14
155
50
160
118
11
145
153
52
120
175
105
29
169
68
141
12
31
148
173
103
159
23
165
178
127
17
58
37
183
82
57
104
47
97
60
139
25
46
70
92
146
136
181
5
88
36
166
112
30
89
167
151
184
18
48
4
74
72
78
86
100
19
9
117
33
126
107
38
66
147
87
161
21
98
2
129
142
108
49
110
95
6
56
170
156
106
111
79
176
45
172
63
13
116
90
158
77
121
76
53
149
69
84
85
154
83
113
24
163
40
55
81
26
132
22
133
16
179
180
101
73
67
182
96
177
54
43
27
171
152
59
131
8
124
62
42
93
140
51
123

> <PUBCHEM_MMFF94_PARTIAL_CHARGES>
53
1 -0.36
10 -0.23
11 -0.55
12 0.91
13 0.27
14 0.41
15 0.14
16 -0.14
17 -0.14
18 0.27
19 0.26
2 -0.36
20 -0.15
21 -0.15
22 0.08
23 0.08
24 -0.3
25 0.05
26 0.46
27 0.28
28 0.28
29 0.08
3 -0.36
30 0.09
31 -0.15
32 -0.15
33 0.54
34 -0.15
35 -0.15
36 0.12
37 -0.15
38 -0.15
39 0.13
4 -0.57
40 -0.15
41 -0.15
5 -0.52
52 0.15
53 0.15
54 0.15
6 -0.52
63 0.15
64 0.15
65 0.15
66 0.15
67 0.37
68 0.15
69 0.15
7 -0.81
70 0.15
71 0.15
8 0.31
9 -0.42

> <PUBCHEM_EFFECTIVE_ROTOR_COUNT>
12.8

> <PUBCHEM_PHARMACOPHORE_FEATURES>
14
1 1 acceptor
1 11 donor
1 2 acceptor
1 3 acceptor
1 4 acceptor
1 5 acceptor
1 5 anion
1 6 acceptor
1 7 cation
5 8 9 10 24 25 rings
6 16 17 20 21 22 23 rings
6 29 30 31 32 34 35 rings
6 36 37 38 39 40 41 rings
6 7 13 14 15 16 17 rings

> <PUBCHEM_HEAVY_ATOM_COUNT>
41

> <PUBCHEM_ATOM_DEF_STEREO_COUNT>
0

> <PUBCHEM_ATOM_UDEF_STEREO_COUNT>
0

> <PUBCHEM_BOND_DEF_STEREO_COUNT>
0

> <PUBCHEM_BOND_UDEF_STEREO_COUNT>
0

> <PUBCHEM_ISOTOPIC_ATOM_COUNT>
0

> <PUBCHEM_COMPONENT_COUNT>
1

> <PUBCHEM_CACTVS_TAUTO_COUNT>
-1

> <PUBCHEM_CONFORMER_ID>
083449110000000F

> <PUBCHEM_MMFF94_ENERGY>
135.0127

> <PUBCHEM_FEATURE_SELFOVERLAP>
71.158

> <PUBCHEM_SHAPE_FINGERPRINT>
10079526 1005 18342466932213524862
10939801 23 18114468937082291184
11135926 11 18337943511259082407
11524674 6 18272647952734868261
12422481 6 18335421210932969467
14017579 153 18411142446450578006
14279260 333 17313653864118567322
14904385 31 18341047432563454600
15064986 96 18263383476860897659
15274700 242 17386266767157504888
15276724 80 18113896109036216748
15297060 5 18272643546103840154
16110190 28 18259989305408169133
16112460 7 18272655601871065010
255183 313 18412260653411071725
335507 130 18040432214400053584
5265222 85 18410012169170214124
57527293 21 18267015060963195859

> <PUBCHEM_SHAPE_MULTIPOLES>
778.66
24.39
4.6
2.28
27.31
5.59
-0.12
-18.47
-14.74
-0.96
3.65
-1.05
0.35
-2.1

> <PUBCHEM_SHAPE_SELFOVERLAP>
1685.298

> <PUBCHEM_SHAPE_VOLUME>
425.6

> <PUBCHEM_COORDINATE_TYPE>
2
5
10

$$$$