184
 OpenBabel03292022023D

 49 52  0  0  0  0  0  0  0  0999 V2000
    2.7726    0.2785    0.8226 C   0  0  0  0  0  0  0  0  0  0  0  0
    2.9042    0.5636   -0.5660 O   0  0  0  0  0  0  0  0  0  0  0  0
    3.3432   -0.4486   -1.3773 C   0  0  0  0  0  0  0  0  0  0  0  0
    3.2913   -1.7926   -0.9881 C   0  0  0  0  0  0  0  0  0  0  0  0
    3.7664   -2.8014   -1.8285 C   0  0  0  0  0  0  0  0  0  0  0  0
    4.2921   -2.5115   -3.0981 C   0  0  0  0  0  0  0  0  0  0  0  0
    4.7755   -3.5923   -3.9648 C   0  0  0  0  0  0  0  0  0  0  0  0
    5.3385   -4.6411   -3.3509 N   0  0  0  0  0  0  0  0  0  0  0  0
    5.6488   -5.7101   -4.0989 C   0  0  0  0  0  0  0  0  0  0  0  0
    6.3549   -6.7847   -3.4888 N   0  0  0  0  0  0  0  0  0  0  0  0
    6.5148   -6.9710   -2.0967 C   0  0  0  0  0  0  0  0  0  0  0  0
    5.4501   -6.7556   -1.2070 C   0  0  0  0  0  0  0  0  0  0  0  0
    5.5883   -6.9767    0.1657 C   0  0  0  0  0  0  0  0  0  0  0  0
    6.7963   -7.4409    0.6740 C   0  0  0  0  0  0  0  0  0  0  0  0
    7.8508   -7.6813   -0.2078 C   0  0  0  0  0  0  0  0  0  0  0  0
    9.3741   -8.3238    0.4115 S   0  0  0  0  0  0  0  0  0  0  0  0
    9.6684   -9.5347   -0.3226 O   0  0  0  0  0  0  0  0  0  0  0  0
   10.3071   -7.2227    0.5088 O   0  0  0  0  0  0  0  0  0  0  0  0
    9.1025   -8.7914    1.9050 F   0  0  0  0  0  0  0  0  0  0  0  0
    7.7184   -7.4644   -1.5848 C   0  0  0  0  0  0  0  0  0  0  0  0
    5.3249   -5.7774   -5.4602 C   0  0  0  0  0  0  0  0  0  0  0  0
    5.4646   -6.9354   -6.2647 C   0  0  0  0  0  0  0  0  0  0  0  0
    5.1145   -6.9097   -7.6112 C   0  0  0  0  0  0  0  0  0  0  0  0
    4.6574   -5.7248   -8.1720 C   0  0  0  0  0  0  0  0  0  0  0  0
    4.5071   -4.5877   -7.3709 C   0  0  0  0  0  0  0  0  0  0  0  0
    4.7997   -4.6015   -6.0123 C   0  0  0  0  0  0  0  0  0  0  0  0
    4.5457   -3.5092   -5.2833 N   0  0  0  0  0  0  0  0  0  0  0  0
    4.3147   -1.1674   -3.4898 C   0  0  0  0  0  0  0  0  0  0  0  0
    3.8501   -0.1361   -2.6507 C   0  0  0  0  0  0  0  0  0  0  0  0
    4.0099    1.1010   -3.2230 O   0  0  0  0  0  0  0  0  0  0  0  0
    3.3313    2.2078   -2.6503 C   0  0  0  0  0  0  0  0  0  0  0  0
    2.6187    1.2268    1.3462 H   0  0  0  0  0  0  0  0  0  0  0  0
    3.6815   -0.1800    1.2279 H   0  0  0  0  0  0  0  0  0  0  0  0
    1.8956   -0.3495    1.0105 H   0  0  0  0  0  0  0  0  0  0  0  0
    2.8801   -2.0977   -0.0317 H   0  0  0  0  0  0  0  0  0  0  0  0
    3.7196   -3.8333   -1.4867 H   0  0  0  0  0  0  0  0  0  0  0  0
    7.2282   -6.9064   -3.9944 H   0  0  0  0  0  0  0  0  0  0  0  0
    4.4907   -6.4121   -1.5876 H   0  0  0  0  0  0  0  0  0  0  0  0
    4.7462   -6.7902    0.8274 H   0  0  0  0  0  0  0  0  0  0  0  0
    6.8993   -7.6135    1.7422 H   0  0  0  0  0  0  0  0  0  0  0  0
    8.5586   -7.6695   -2.2443 H   0  0  0  0  0  0  0  0  0  0  0  0
    5.8035   -7.8722   -5.8269 H   0  0  0  0  0  0  0  0  0  0  0  0
    5.1914   -7.8103   -8.2150 H   0  0  0  0  0  0  0  0  0  0  0  0
    4.3942   -5.6841   -9.2258 H   0  0  0  0  0  0  0  0  0  0  0  0
    4.1296   -3.6700   -7.8183 H   0  0  0  0  0  0  0  0  0  0  0  0
    4.7133   -0.9043   -4.4705 H   0  0  0  0  0  0  0  0  0  0  0  0
    3.4762    3.0617   -3.3197 H   0  0  0  0  0  0  0  0  0  0  0  0
    3.7647    2.4860   -1.6854 H   0  0  0  0  0  0  0  0  0  0  0  0
    2.2543    2.0244   -2.5819 H   0  0  0  0  0  0  0  0  0  0  0  0
  1  2  1  0  0  0  0
  1 32  1  0  0  0  0
  1 33  1  0  0  0  0
  1 34  1  0  0  0  0
  2  3  1  0  0  0  0
  3  4  1  0  0  0  0
  3 29  2  0  0  0  0
  4  5  2  0  0  0  0
  4 35  1  0  0  0  0
  5  6  1  0  0  0  0
  5 36  1  0  0  0  0
  6  7  1  0  0  0  0
  6 28  2  0  0  0  0
  7  8  1  0  0  0  0
  7 27  2  0  0  0  0
  8  9  2  0  0  0  0
  9 10  1  0  0  0  0
  9 21  1  0  0  0  0
 10 11  1  0  0  0  0
 10 37  1  0  0  0  0
 11 12  1  0  0  0  0
 11 20  2  0  0  0  0
 12 13  2  0  0  0  0
 12 38  1  0  0  0  0
 13 14  1  0  0  0  0
 13 39  1  0  0  0  0
 14 15  2  0  0  0  0
 14 40  1  0  0  0  0
 15 16  1  0  0  0  0
 15 20  1  0  0  0  0
 16 17  2  0  0  0  0
 16 18  2  0  0  0  0
 16 19  1  0  0  0  0
 20 41  1  0  0  0  0
 21 22  1  0  0  0  0
 21 26  2  0  0  0  0
 22 23  2  0  0  0  0
 22 42  1  0  0  0  0
 23 24  1  0  0  0  0
 23 43  1  0  0  0  0
 24 25  2  0  0  0  0
 24 44  1  0  0  0  0
 25 26  1  0  0  0  0
 25 45  1  0  0  0  0
 26 27  1  0  0  0  0
 28 29  1  0  0  0  0
 28 46  1  0  0  0  0
 29 30  1  0  0  0  0
 30 31  1  0  0  0  0
 31 47  1  0  0  0  0
 31 48  1  0  0  0  0
 31 49  1  0  0  0  0
M  END
>  <Energy>
77.4719

$$$$