44451745
  -OEChem-03242010103D

 65 69  0     1  0  0  0  0  0999 V2000
    9.1687   -2.2273    0.7669 O   0  0  0  0  0  0  0  0  0  0  0  0
   10.1857    0.3416    0.4799 O   0  0  0  0  0  0  0  0  0  0  0  0
   -4.4828   -1.3811   -1.9458 O   0  0  0  0  0  0  0  0  0  0  0  0
    3.8165    0.5593   -0.2488 N   0  0  1  0  0  0  0  0  0  0  0  0
   -4.0225    0.3805   -0.4579 N   0  0  0  0  0  0  0  0  0  0  0  0
    4.2051    1.8380    0.3588 C   0  0  0  0  0  0  0  0  0  0  0  0
    4.5824   -0.5451    0.3557 C   0  0  0  0  0  0  0  0  0  0  0  0
    5.6612    2.1601    0.0076 C   0  0  0  0  0  0  0  0  0  0  0  0
    6.0750   -0.3063    0.3588 C   0  0  0  0  0  0  0  0  0  0  0  0
    6.5897    0.9959    0.2367 C   0  0  0  0  0  0  0  0  0  0  0  0
    2.3808    0.3267   -0.0956 C   0  0  0  0  0  0  0  0  0  0  0  0
    1.5791    1.1881   -1.0719 C   0  0  0  0  0  0  0  0  0  0  0  0
    6.9542   -1.3812    0.5487 C   0  0  0  0  0  0  0  0  0  0  0  0
    7.9752    1.1994    0.2688 C   0  0  0  0  0  0  0  0  0  0  0  0
    8.3316   -1.1672    0.5889 C   0  0  0  0  0  0  0  0  0  0  0  0
    8.8418    0.1213    0.4467 C   0  0  0  0  0  0  0  0  0  0  0  0
    0.0954    0.9742   -0.9092 C   0  0  0  0  0  0  0  0  0  0  0  0
   -0.5522   -0.0142   -1.6506 C   0  0  0  0  0  0  0  0  0  0  0  0
   -0.6297    1.7646   -0.0175 C   0  0  0  0  0  0  0  0  0  0  0  0
   -1.9247   -0.2122   -1.5003 C   0  0  0  0  0  0  0  0  0  0  0  0
   -2.0022    1.5666    0.1329 C   0  0  0  0  0  0  0  0  0  0  0  0
   -2.6497    0.5784   -0.6085 C   0  0  0  0  0  0  0  0  0  0  0  0
    8.5659   -3.5127    0.9041 C   0  0  0  0  0  0  0  0  0  0  0  0
   10.8824    0.2848   -0.7634 C   0  0  0  0  0  0  0  0  0  0  0  0
   -4.8361   -0.5549   -1.1111 C   0  0  0  0  0  0  0  0  0  0  0  0
   -6.2684   -0.5411   -0.7139 C   0  0  0  0  0  0  0  0  0  0  0  0
   -7.9834   -0.0815    0.9490 C   0  0  0  0  0  0  0  0  0  0  0  0
   -8.9747   -0.5140    0.0362 C   0  0  0  0  0  0  0  0  0  0  0  0
   -6.6347   -0.1012    0.5584 C   0  0  0  0  0  0  0  0  0  0  0  0
   -7.2433   -0.9664   -1.6116 C   0  0  0  0  0  0  0  0  0  0  0  0
   -8.5881   -0.9536   -1.2403 C   0  0  0  0  0  0  0  0  0  0  0  0
   -8.3702    0.3581    2.2256 C   0  0  0  0  0  0  0  0  0  0  0  0
  -10.3235   -0.4943    0.4269 C   0  0  0  0  0  0  0  0  0  0  0  0
   -9.7150    0.3710    2.5968 C   0  0  0  0  0  0  0  0  0  0  0  0
  -10.6898   -0.0544    1.6992 C   0  0  0  0  0  0  0  0  0  0  0  0
    3.5970    2.6732   -0.0013 H   0  0  0  0  0  0  0  0  0  0  0  0
    4.0817    1.8016    1.4501 H   0  0  0  0  0  0  0  0  0  0  0  0
    4.3812   -1.4600   -0.2157 H   0  0  0  0  0  0  0  0  0  0  0  0
    4.2655   -0.7150    1.3935 H   0  0  0  0  0  0  0  0  0  0  0  0
    5.7278    2.4459   -1.0499 H   0  0  0  0  0  0  0  0  0  0  0  0
    5.9875    3.0179    0.6077 H   0  0  0  0  0  0  0  0  0  0  0  0
    2.1519   -0.7246   -0.3182 H   0  0  0  0  0  0  0  0  0  0  0  0
    2.0578    0.4975    0.9404 H   0  0  0  0  0  0  0  0  0  0  0  0
    1.7811    2.2571   -0.9438 H   0  0  0  0  0  0  0  0  0  0  0  0
    1.8692    0.9560   -2.1055 H   0  0  0  0  0  0  0  0  0  0  0  0
    6.4991   -2.3600    0.6598 H   0  0  0  0  0  0  0  0  0  0  0  0
    8.3787    2.2030    0.1549 H   0  0  0  0  0  0  0  0  0  0  0  0
    0.0037   -0.6369   -2.3469 H   0  0  0  0  0  0  0  0  0  0  0  0
   -0.1359    2.5362    0.5672 H   0  0  0  0  0  0  0  0  0  0  0  0
   -2.3523   -0.9964   -2.1087 H   0  0  0  0  0  0  0  0  0  0  0  0
   -2.5542    2.1896    0.8322 H   0  0  0  0  0  0  0  0  0  0  0  0
    9.3774   -4.2360    1.0360 H   0  0  0  0  0  0  0  0  0  0  0  0
    8.0257   -3.8045   -0.0030 H   0  0  0  0  0  0  0  0  0  0  0  0
    7.9400   -3.5717    1.8010 H   0  0  0  0  0  0  0  0  0  0  0  0
   10.5089    1.0534   -1.4475 H   0  0  0  0  0  0  0  0  0  0  0  0
   10.7794   -0.7055   -1.2182 H   0  0  0  0  0  0  0  0  0  0  0  0
   11.9423    0.4727   -0.5711 H   0  0  0  0  0  0  0  0  0  0  0  0
   -4.4633    1.0343    0.1829 H   0  0  0  0  0  0  0  0  0  0  0  0
   -5.8880    0.1985    1.2901 H   0  0  0  0  0  0  0  0  0  0  0  0
   -6.9787   -1.3075   -2.6091 H   0  0  0  0  0  0  0  0  0  0  0  0
   -9.3333   -1.2893   -1.9584 H   0  0  0  0  0  0  0  0  0  0  0  0
   -7.6259    0.6954    2.9439 H   0  0  0  0  0  0  0  0  0  0  0  0
  -11.1024   -0.8223   -0.2584 H   0  0  0  0  0  0  0  0  0  0  0  0
  -10.0008    0.7134    3.5871 H   0  0  0  0  0  0  0  0  0  0  0  0
  -11.7366   -0.0441    1.9888 H   0  0  0  0  0  0  0  0  0  0  0  0
  1 15  1  0  0  0  0
  1 23  1  0  0  0  0
  2 16  1  0  0  0  0
  2 24  1  0  0  0  0
  3 25  2  0  0  0  0
  4  6  1  0  0  0  0
  4  7  1  0  0  0  0
  4 11  1  0  0  0  0
  5 22  1  0  0  0  0
  5 25  1  0  0  0  0
  5 58  1  0  0  0  0
  6  8  1  0  0  0  0
  6 36  1  0  0  0  0
  6 37  1  0  0  0  0
  7  9  1  0  0  0  0
  7 38  1  0  0  0  0
  7 39  1  0  0  0  0
  8 10  1  0  0  0  0
  8 40  1  0  0  0  0
  8 41  1  0  0  0  0
  9 10  1  0  0  0  0
  9 13  2  0  0  0  0
 10 14  2  0  0  0  0
 11 12  1  0  0  0  0
 11 42  1  0  0  0  0
 11 43  1  0  0  0  0
 12 17  1  0  0  0  0
 12 44  1  0  0  0  0
 12 45  1  0  0  0  0
 13 15  1  0  0  0  0
 13 46  1  0  0  0  0
 14 16  1  0  0  0  0
 14 47  1  0  0  0  0
 15 16  2  0  0  0  0
 17 18  2  0  0  0  0
 17 19  1  0  0  0  0
 18 20  1  0  0  0  0
 18 48  1  0  0  0  0
 19 21  2  0  0  0  0
 19 49  1  0  0  0  0
 20 22  2  0  0  0  0
 20 50  1  0  0  0  0
 21 22  1  0  0  0  0
 21 51  1  0  0  0  0
 23 52  1  0  0  0  0
 23 53  1  0  0  0  0
 23 54  1  0  0  0  0
 24 55  1  0  0  0  0
 24 56  1  0  0  0  0
 24 57  1  0  0  0  0
 25 26  1  0  0  0  0
 26 29  2  0  0  0  0
 26 30  1  0  0  0  0
 27 28  1  0  0  0  0
 27 29  1  0  0  0  0
 27 32  2  0  0  0  0
 28 31  1  0  0  0  0
 28 33  2  0  0  0  0
 29 59  1  0  0  0  0
 30 31  2  0  0  0  0
 30 60  1  0  0  0  0
 31 61  1  0  0  0  0
 32 34  1  0  0  0  0
 32 62  1  0  0  0  0
 33 35  1  0  0  0  0
 33 63  1  0  0  0  0
 34 35  2  0  0  0  0
 34 64  1  0  0  0  0
 35 65  1  0  0  0  0
M  END
> <PUBCHEM_COMPOUND_CID>
44451745

> <PUBCHEM_CONFORMER_RMSD>
1

> <PUBCHEM_CONFORMER_DIVERSEORDER>
6
78
48
115
74
54
77
98
104
18
111
114
75
76
43
84
94
118
46
100
107
72
95
39
68
103
53
30
101
44
116
113
82
12
60
25
4
50
41
108
112
88
97
106
80
19
119
102
37
93
79
90
20
17
117
65
3
110
105
2
63
61
38
35
1
96
58
5
71
70
15
47
11
86
67
16
21
99
62
42
109
81
8
36
87
45
9
29
69
10
64
91
24
14
51
26
73
7
32
59
40
23
92
66
22
89
49
57
13
33
55
83
85
31
28
34
56
27
52

> <PUBCHEM_MMFF94_PARTIAL_CHARGES>
47
1 -0.36
10 -0.14
11 0.27
12 0.14
13 -0.15
14 -0.15
15 0.08
16 0.08
17 -0.14
18 -0.15
19 -0.15
2 -0.36
20 -0.15
21 -0.15
22 0.12
23 0.28
24 0.28
25 0.54
26 0.09
29 -0.15
3 -0.57
30 -0.15
31 -0.15
32 -0.15
33 -0.15
34 -0.15
35 -0.15
4 -0.81
46 0.15
47 0.15
48 0.15
49 0.15
5 -0.55
50 0.15
51 0.15
58 0.37
59 0.15
6 0.27
60 0.15
61 0.15
62 0.15
63 0.15
64 0.15
65 0.15
7 0.41
8 0.14
9 -0.14

> <PUBCHEM_EFFECTIVE_ROTOR_COUNT>
8.8

> <PUBCHEM_PHARMACOPHORE_FEATURES>
10
1 1 acceptor
1 2 acceptor
1 3 acceptor
1 4 cation
1 5 donor
6 17 18 19 20 21 22 rings
6 26 27 28 29 30 31 rings
6 27 28 32 33 34 35 rings
6 4 6 7 8 9 10 rings
6 9 10 13 14 15 16 rings

> <PUBCHEM_HEAVY_ATOM_COUNT>
35

> <PUBCHEM_ATOM_DEF_STEREO_COUNT>
0

> <PUBCHEM_ATOM_UDEF_STEREO_COUNT>
0

> <PUBCHEM_BOND_DEF_STEREO_COUNT>
0

> <PUBCHEM_BOND_UDEF_STEREO_COUNT>
0

> <PUBCHEM_ISOTOPIC_ATOM_COUNT>
0

> <PUBCHEM_COMPONENT_COUNT>
1

> <PUBCHEM_CACTVS_TAUTO_COUNT>
2

> <PUBCHEM_CONFORMER_ID>
02A647A100000006

> <PUBCHEM_MMFF94_ENERGY>
125.2568

> <PUBCHEM_FEATURE_SELFOVERLAP>
50.8

> <PUBCHEM_SHAPE_FINGERPRINT>
10076449 9 15502093051407157949
10168742 298 16226049955766961130
10299344 5 18272083912107601892
10533779 47 18408045091291267498
10674148 151 17489866063666380907
11061554 47 14548744984800305875
11135609 127 11458435639843441638
11408170 108 18260549987270893658
11456790 92 17704075131393516657
11476731 38 18186524324371835332
11607047 141 14476966633089532022
11638347 137 18334575745776778389
11693224 71 10519989266332550428
12089408 11 17846214492325760165
12144603 126 18059857293772882852
12539745 222 18040152882480532109
12559415 141 18187093844687288314
12664476 115 11312058738473048898
12728209 37 16343703257542128298
131240 100 15357987806180780708
13947947 19 13767930135008507306
14150022 121 16988851545094525033
14251920 17 15719398369938136796
14344974 52 14562534007453358380
14395042 24 17489595549926777897
15061470 23 16200431386552908888
15065858 18 16081360857038510260
15247644 1 17167581583372676698
15419008 145 18059861632734961561
15461852 350 14056717942238537461
15510794 2 16587744252218877469
16067689 302 18187927236447440106
16728433 110 17894630383607775596
1754911 235 9583519807123239643
1818759 1 17821447954191960019
19841028 212 15864617376238627776
20105231 36 17458344156799919939
20580484 106 16415477155593128375
20982279 24 17822583715507550499
21362267 20 18336262448956670611
21362267 313 16630253511138224958
21772524 286 17202777985918547969
21792934 111 13614520762832880178
21792961 116 17894625947433826109
21927370 108 17894912919652756029
22149856 69 16486975081950514662
232437 2 18409728473615757423
23576562 1 10954044597184562147
24771293 8 17275105029551238309
3092352 35 17989486351379410119
335507 130 18260827111877971308
395649 100 7925907076874791105
439807 62 18413385454365637344
4403749 210 12895059761098158693
44389302 135 17989201522144485286
4516262 110 11527950045125033317
45377200 153 16153715349301984137
54039377 194 15791733027583414191
54583773 228 10881691213038904777
54728670 133 18187364270132022461
57676310 188 12829478256726279857
6057620 51 11819264555972265909
6201320 215 18271246007540284041
636775 8 15357700799697207425
67123 10 14273452591488810828
9937071 3 17894910724543827506

> <PUBCHEM_SHAPE_MULTIPOLES>
692.71
46.95
1.9
1.66
1.27
0.97
0.27
15.47
18.74
-5.95
0.31
5.24
0.22
-2.55

> <PUBCHEM_SHAPE_SELFOVERLAP>
1515.726

> <PUBCHEM_SHAPE_VOLUME>
375.6

> <PUBCHEM_COORDINATE_TYPE>
2
5
10

$$$$