25156685
  -OEChem-03242010103D

 66 69  0     1  0  0  0  0  0999 V2000
    3.1492   -1.9929   -0.0147 O   0  0  0  0  0  0  0  0  0  0  0  0
   -4.2528    0.6400   -1.7064 O   0  0  0  0  0  0  0  0  0  0  0  0
   -5.1352    0.0480    0.8604 O   0  0  0  0  0  0  0  0  0  0  0  0
   -0.2639    2.7440   -1.6537 O   0  0  0  0  0  0  0  0  0  0  0  0
    0.4722   -2.9102   -0.1194 N   0  0  2  0  0  0  0  0  0  0  0  0
   -0.2986   -3.7756    0.7819 C   0  0  0  0  0  0  0  0  0  0  0  0
   -0.4061   -2.3496   -1.1615 C   0  0  0  0  0  0  0  0  0  0  0  0
   -1.3158   -2.9385    1.5640 C   0  0  0  0  0  0  0  0  0  0  0  0
   -1.6483   -1.6910   -0.6063 C   0  0  0  0  0  0  0  0  0  0  0  0
   -2.1084   -2.0080    0.6834 C   0  0  0  0  0  0  0  0  0  0  0  0
    1.5777   -3.6488   -0.7286 C   0  0  0  0  0  0  0  0  0  0  0  0
   -2.3860   -0.8061   -1.4043 C   0  0  0  0  0  0  0  0  0  0  0  0
   -3.2774   -1.4081    1.1691 C   0  0  0  0  0  0  0  0  0  0  0  0
    2.6855   -2.6999   -1.1574 C   0  0  0  0  0  0  0  0  0  0  0  0
   -3.5541   -0.2216   -0.9155 C   0  0  0  0  0  0  0  0  0  0  0  0
   -3.9981   -0.5205    0.3706 C   0  0  0  0  0  0  0  0  0  0  0  0
    3.6519   -0.7358   -0.2277 C   0  0  0  0  0  0  0  0  0  0  0  0
    3.5530    0.2480    0.7561 C   0  0  0  0  0  0  0  0  0  0  0  0
    2.8985   -0.0454    2.0654 C   0  0  0  0  0  0  0  0  0  0  0  0
    1.3597   -0.0931    2.0000 C   0  0  0  0  0  0  0  0  0  0  0  0
    4.2673   -0.4452   -1.4453 C   0  0  0  0  0  0  0  0  0  0  0  0
    4.0692    1.5226    0.5222 C   0  0  0  0  0  0  0  0  0  0  0  0
    0.7454    1.1926    1.5019 C   0  0  0  0  0  0  0  0  0  0  0  0
   -3.7305    0.8922   -3.0093 C   0  0  0  0  0  0  0  0  0  0  0  0
   -4.9939    1.2863    1.5539 C   0  0  0  0  0  0  0  0  0  0  0  0
    4.7835    0.8293   -1.6791 C   0  0  0  0  0  0  0  0  0  0  0  0
    4.6845    1.8133   -0.6954 C   0  0  0  0  0  0  0  0  0  0  0  0
    0.5225    1.3766    0.1374 C   0  0  0  0  0  0  0  0  0  0  0  0
    0.4007    2.1967    2.4065 C   0  0  0  0  0  0  0  0  0  0  0  0
   -0.0455    2.5646   -0.3225 C   0  0  0  0  0  0  0  0  0  0  0  0
   -0.1672    3.3848    1.9469 C   0  0  0  0  0  0  0  0  0  0  0  0
   -0.3904    3.5687    0.5823 C   0  0  0  0  0  0  0  0  0  0  0  0
   -0.8485    3.9824   -2.0548 C   0  0  0  0  0  0  0  0  0  0  0  0
    0.3587   -4.2657    1.5107 H   0  0  0  0  0  0  0  0  0  0  0  0
   -0.8088   -4.5687    0.2185 H   0  0  0  0  0  0  0  0  0  0  0  0
   -0.7318   -3.1311   -1.8613 H   0  0  0  0  0  0  0  0  0  0  0  0
    0.1468   -1.5945   -1.7313 H   0  0  0  0  0  0  0  0  0  0  0  0
   -0.7961   -2.3367    2.3196 H   0  0  0  0  0  0  0  0  0  0  0  0
   -1.9966   -3.6172    2.0916 H   0  0  0  0  0  0  0  0  0  0  0  0
    1.2496   -4.2753   -1.5670 H   0  0  0  0  0  0  0  0  0  0  0  0
    2.0181   -4.3244    0.0169 H   0  0  0  0  0  0  0  0  0  0  0  0
   -1.9947   -0.6156   -2.3984 H   0  0  0  0  0  0  0  0  0  0  0  0
   -3.6262   -1.6352    2.1740 H   0  0  0  0  0  0  0  0  0  0  0  0
    2.3064   -2.0324   -1.9407 H   0  0  0  0  0  0  0  0  0  0  0  0
    3.5166   -3.2843   -1.5697 H   0  0  0  0  0  0  0  0  0  0  0  0
    3.2715   -1.0023    2.4531 H   0  0  0  0  0  0  0  0  0  0  0  0
    3.2023    0.7025    2.8101 H   0  0  0  0  0  0  0  0  0  0  0  0
    0.9640   -0.3254    2.9969 H   0  0  0  0  0  0  0  0  0  0  0  0
    1.0355   -0.9116    1.3576 H   0  0  0  0  0  0  0  0  0  0  0  0
    4.3951   -1.1879   -2.2270 H   0  0  0  0  0  0  0  0  0  0  0  0
    3.9988    2.3010    1.2774 H   0  0  0  0  0  0  0  0  0  0  0  0
    5.2688    1.0543   -2.6244 H   0  0  0  0  0  0  0  0  0  0  0  0
   -4.4088    1.6006   -3.4963 H   0  0  0  0  0  0  0  0  0  0  0  0
   -3.7233   -0.0143   -3.6241 H   0  0  0  0  0  0  0  0  0  0  0  0
   -2.7482    1.3746   -2.9645 H   0  0  0  0  0  0  0  0  0  0  0  0
   -5.9865    1.6165    1.8717 H   0  0  0  0  0  0  0  0  0  0  0  0
   -4.5644    2.0494    0.8970 H   0  0  0  0  0  0  0  0  0  0  0  0
   -4.3659    1.1587    2.4415 H   0  0  0  0  0  0  0  0  0  0  0  0
    5.0871    2.8054   -0.8773 H   0  0  0  0  0  0  0  0  0  0  0  0
    0.7845    0.5997   -0.5756 H   0  0  0  0  0  0  0  0  0  0  0  0
    0.5714    2.0656    3.4717 H   0  0  0  0  0  0  0  0  0  0  0  0
   -0.4352    4.1661    2.6522 H   0  0  0  0  0  0  0  0  0  0  0  0
   -0.8351    4.5149    0.2939 H   0  0  0  0  0  0  0  0  0  0  0  0
   -0.9504    3.9532   -3.1446 H   0  0  0  0  0  0  0  0  0  0  0  0
   -0.1978    4.8306   -1.8168 H   0  0  0  0  0  0  0  0  0  0  0  0
   -1.8563    4.1028   -1.6431 H   0  0  0  0  0  0  0  0  0  0  0  0
  1 14  1  0  0  0  0
  1 17  1  0  0  0  0
  2 15  1  0  0  0  0
  2 24  1  0  0  0  0
  3 16  1  0  0  0  0
  3 25  1  0  0  0  0
  4 30  1  0  0  0  0
  4 33  1  0  0  0  0
  5  6  1  0  0  0  0
  5  7  1  0  0  0  0
  5 11  1  0  0  0  0
  6  8  1  0  0  0  0
  6 34  1  0  0  0  0
  6 35  1  0  0  0  0
  7  9  1  0  0  0  0
  7 36  1  0  0  0  0
  7 37  1  0  0  0  0
  8 10  1  0  0  0  0
  8 38  1  0  0  0  0
  8 39  1  0  0  0  0
  9 10  1  0  0  0  0
  9 12  2  0  0  0  0
 10 13  2  0  0  0  0
 11 14  1  0  0  0  0
 11 40  1  0  0  0  0
 11 41  1  0  0  0  0
 12 15  1  0  0  0  0
 12 42  1  0  0  0  0
 13 16  1  0  0  0  0
 13 43  1  0  0  0  0
 14 44  1  0  0  0  0
 14 45  1  0  0  0  0
 15 16  2  0  0  0  0
 17 18  1  0  0  0  0
 17 21  2  0  0  0  0
 18 19  1  0  0  0  0
 18 22  2  0  0  0  0
 19 20  1  0  0  0  0
 19 46  1  0  0  0  0
 19 47  1  0  0  0  0
 20 23  1  0  0  0  0
 20 48  1  0  0  0  0
 20 49  1  0  0  0  0
 21 26  1  0  0  0  0
 21 50  1  0  0  0  0
 22 27  1  0  0  0  0
 22 51  1  0  0  0  0
 23 28  2  0  0  0  0
 23 29  1  0  0  0  0
 24 53  1  0  0  0  0
 24 54  1  0  0  0  0
 24 55  1  0  0  0  0
 25 56  1  0  0  0  0
 25 57  1  0  0  0  0
 25 58  1  0  0  0  0
 26 27  2  0  0  0  0
 26 52  1  0  0  0  0
 27 59  1  0  0  0  0
 28 30  1  0  0  0  0
 28 60  1  0  0  0  0
 29 31  2  0  0  0  0
 29 61  1  0  0  0  0
 30 32  2  0  0  0  0
 31 32  1  0  0  0  0
 31 62  1  0  0  0  0
 32 63  1  0  0  0  0
 33 64  1  0  0  0  0
 33 65  1  0  0  0  0
 33 66  1  0  0  0  0
M  END
> <PUBCHEM_COMPOUND_CID>
25156685

> <PUBCHEM_CONFORMER_RMSD>
1.4

> <PUBCHEM_CONFORMER_DIVERSEORDER>
1
134
10
142
75
59
86
85
113
133
78
73
106
136
124
14
111
152
67
87
2
104
16
25
159
80
139
115
71
53
102
50
34
98
57
125
138
153
168
122
180
184
129
143
82
48
121
39
126
33
165
166
181
43
117
182
97
140
9
42
35
45
157
161
123
49
112
3
128
76
68
69
183
163
56
20
72
148
12
89
91
64
15
147
40
94
132
22
155
27
55
160
58
172
37
149
186
141
79
107
13
110
116
130
44
170
26
105
99
144
29
28
174
54
145
108
24
47
90
88
74
84
11
120
114
154
150
101
83
177
176
109
169
92
18
17
118
19
178
31
61
93
70
30
162
167
4
131
32
103
36
158
135
51
156
96
151
173
119
60
52
179
77
66
41
38
146
8
100
164
171
175
185
65
127
63
5
81
23
46
21
95
6
7
137
62

> <PUBCHEM_MMFF94_PARTIAL_CHARGES>
43
1 -0.36
10 -0.14
11 0.27
12 -0.15
13 -0.15
14 0.28
15 0.08
16 0.08
17 0.08
18 -0.14
19 0.14
2 -0.36
20 0.14
21 -0.15
22 -0.15
23 -0.14
24 0.28
25 0.28
26 -0.15
27 -0.15
28 -0.15
29 -0.15
3 -0.36
30 0.08
31 -0.15
32 -0.15
33 0.28
4 -0.36
42 0.15
43 0.15
5 -0.81
50 0.15
51 0.15
52 0.15
59 0.15
6 0.27
60 0.15
61 0.15
62 0.15
63 0.15
7 0.41
8 0.14
9 -0.14

> <PUBCHEM_EFFECTIVE_ROTOR_COUNT>
10.8

> <PUBCHEM_PHARMACOPHORE_FEATURES>
9
1 1 acceptor
1 2 acceptor
1 3 acceptor
1 4 acceptor
1 5 cation
6 17 18 21 22 26 27 rings
6 23 28 29 30 31 32 rings
6 5 6 7 8 9 10 rings
6 9 10 12 13 15 16 rings

> <PUBCHEM_HEAVY_ATOM_COUNT>
33

> <PUBCHEM_ATOM_DEF_STEREO_COUNT>
0

> <PUBCHEM_ATOM_UDEF_STEREO_COUNT>
0

> <PUBCHEM_BOND_DEF_STEREO_COUNT>
0

> <PUBCHEM_BOND_UDEF_STEREO_COUNT>
0

> <PUBCHEM_ISOTOPIC_ATOM_COUNT>
0

> <PUBCHEM_COMPONENT_COUNT>
1

> <PUBCHEM_CACTVS_TAUTO_COUNT>
1

> <PUBCHEM_CONFORMER_ID>
017FDC4D00000001

> <PUBCHEM_MMFF94_ENERGY>
119.5456

> <PUBCHEM_FEATURE_SELFOVERLAP>
45.699

> <PUBCHEM_SHAPE_FINGERPRINT>
10675989 125 18268132189502334324
11513181 2 17630903620128128607
11578080 2 18042682798753467765
12156800 1 16691678861826258920
12553582 1 18271803557711401080
12788726 201 18343308033271499320
13726171 33 18188499085050709368
13947920 24 18335707165460720164
14114211 80 18270697470288475070
144659 39 17751052856559191396
15210252 30 18338524148394568288
16728300 4 10950117008190032972
17093844 170 18341899584651208426
17921350 177 17969201482247376782
20600515 1 18198362816737691468
20764821 26 17983835822946447237
3027735 51 18268150863972008496
35225 105 17197735556809973612
469060 322 17174373125321697343
50150288 127 17056980475920760489
5283178 26 18338510949838495021
70251023 43 17844528794840298758

> <PUBCHEM_SHAPE_MULTIPOLES>
650.67
8.81
4.97
2.45
0.52
0.04
0.37
0.97
2.05
-0.17
0.12
0.93
1.38
0.95

> <PUBCHEM_SHAPE_SELFOVERLAP>
1390.756

> <PUBCHEM_SHAPE_VOLUME>
362.3

> <PUBCHEM_COORDINATE_TYPE>
2
5
10

$$$$