186
 OpenBabel03292022033D

 85 88  0  0  0  0  0  0  0  0999 V2000
   10.9751  -12.1620    2.4769 C   0  0  0  0  0  0  0  0  0  0  0  0
   10.9449  -12.2213    3.9197 O   0  0  0  0  0  0  0  0  0  0  0  0
   11.0094  -10.9753    4.4963 C   0  0  0  0  0  0  0  0  0  0  0  0
   10.3413   -9.9332    3.8210 C   0  0  0  0  0  0  0  0  0  0  0  0
   10.6993   -8.6096    4.0030 C   0  0  0  0  0  0  0  0  0  0  0  0
   10.3866   -7.5780    2.9941 C   0  0  0  0  0  0  0  0  0  0  0  0
    9.4875   -7.7148    1.9993 C   0  0  0  0  0  0  0  0  0  0  0  0
    9.3154   -6.7726    0.8769 C   0  0  0  0  0  0  0  0  0  0  0  0
    8.4078   -6.8866    0.0647 O   0  0  0  0  0  0  0  0  0  0  0  0
   10.3271   -5.8759    0.8250 O   0  0  0  0  0  0  0  0  0  0  0  0
   10.4510   -5.1578   -0.4116 C   0  0  0  0  0  0  0  0  0  0  0  0
   11.1914   -5.9998   -1.4545 C   0  0  0  0  0  0  0  0  0  0  0  0
   12.5780   -6.4233   -0.9443 C   0  0  0  0  0  0  0  0  0  0  0  0
   13.3331   -7.3097   -1.8524 N   0  0  0  0  0  0  0  0  0  0  0  0
   13.5828   -6.6762   -3.1511 C   0  0  0  0  0  0  0  0  0  0  0  0
   14.6199   -7.7030   -1.2411 C   0  0  0  0  0  0  0  0  0  0  0  0
   14.4912   -8.6681   -0.0449 C   0  0  0  0  0  0  0  0  0  0  0  0
   13.7468   -9.9815   -0.3491 C   0  0  0  0  0  0  0  0  0  0  0  0
   14.4877  -10.8260   -1.3965 C   0  0  0  0  0  0  0  0  0  0  0  0
   13.7593  -12.0957   -1.8303 C   0  0  0  0  0  0  0  0  0  0  0  0
   13.8799  -13.1385   -0.8594 O   0  0  0  0  0  0  0  0  0  0  0  0
   12.7043  -13.5488   -0.3166 C   0  0  0  0  0  0  0  0  0  0  0  0
   11.6262  -13.1246   -0.6581 O   0  0  0  0  0  0  0  0  0  0  0  0
   12.8592  -14.5428    0.8096 C   0  0  0  0  0  0  0  0  0  0  0  0
   11.7039  -15.3639    0.9351 C   0  0  0  0  0  0  0  0  0  0  0  0
   10.9596  -15.7981   -0.1819 C   0  0  0  0  0  0  0  0  0  0  0  0
    9.5881  -15.9646   -0.0881 C   0  0  0  0  0  0  0  0  0  0  0  0
    8.9667  -15.8431    1.1480 C   0  0  0  0  0  0  0  0  0  0  0  0
    9.7429  -15.7301    2.3009 C   0  0  0  0  0  0  0  0  0  0  0  0
   11.1464  -15.5268    2.2095 C   0  0  0  0  0  0  0  0  0  0  0  0
   11.9596  -15.2934    3.3276 C   0  0  0  0  0  0  0  0  0  0  0  0
   13.2124  -14.6582    3.2058 C   0  0  0  0  0  0  0  0  0  0  0  0
   13.8819  -14.2841    4.3691 C   0  0  0  0  0  0  0  0  0  0  0  0
   14.8139  -13.2310    4.3675 C   0  0  0  0  0  0  0  0  0  0  0  0
   15.1705  -12.6509    3.1655 C   0  0  0  0  0  0  0  0  0  0  0  0
   14.6586  -13.1692    1.9735 C   0  0  0  0  0  0  0  0  0  0  0  0
   13.6349  -14.1669    1.9584 C   0  0  0  0  0  0  0  0  0  0  0  0
   11.5406   -8.3259    5.0745 C   0  0  0  0  0  0  0  0  0  0  0  0
   12.0487   -9.3441    5.9093 C   0  0  0  0  0  0  0  0  0  0  0  0
   12.8238   -8.8160    6.9160 O   0  0  0  0  0  0  0  0  0  0  0  0
   13.3524   -9.6766    7.9141 C   0  0  0  0  0  0  0  0  0  0  0  0
   11.8140  -10.7029    5.6151 C   0  0  0  0  0  0  0  0  0  0  0  0
   12.5877  -11.5849    6.3055 O   0  0  0  0  0  0  0  0  0  0  0  0
   12.1714  -12.8656    6.7371 C   0  0  0  0  0  0  0  0  0  0  0  0
   11.8758  -12.6425    2.1546 H   0  0  0  0  0  0  0  0  0  0  0  0
   11.0801  -11.1789    2.0038 H   0  0  0  0  0  0  0  0  0  0  0  0
   10.1062  -12.6766    2.0586 H   0  0  0  0  0  0  0  0  0  0  0  0
    9.6537  -10.1956    3.0206 H   0  0  0  0  0  0  0  0  0  0  0  0
   11.0258   -6.6988    3.0240 H   0  0  0  0  0  0  0  0  0  0  0  0
    8.8399   -8.5784    1.9054 H   0  0  0  0  0  0  0  0  0  0  0  0
   11.0206   -4.2486   -0.1980 H   0  0  0  0  0  0  0  0  0  0  0  0
    9.4696   -4.8401   -0.7828 H   0  0  0  0  0  0  0  0  0  0  0  0
   11.2724   -5.4082   -2.3727 H   0  0  0  0  0  0  0  0  0  0  0  0
   10.6083   -6.9007   -1.6888 H   0  0  0  0  0  0  0  0  0  0  0  0
   12.4198   -6.9566   -0.0010 H   0  0  0  0  0  0  0  0  0  0  0  0
   13.1652   -5.5264   -0.7109 H   0  0  0  0  0  0  0  0  0  0  0  0
   12.6491   -6.4633   -3.6800 H   0  0  0  0  0  0  0  0  0  0  0  0
   14.1406   -7.3533   -3.8083 H   0  0  0  0  0  0  0  0  0  0  0  0
   14.1518   -5.7448   -3.0531 H   0  0  0  0  0  0  0  0  0  0  0  0
   15.1809   -6.8128   -0.9267 H   0  0  0  0  0  0  0  0  0  0  0  0
   15.2489   -8.1916   -1.9949 H   0  0  0  0  0  0  0  0  0  0  0  0
   14.0011   -8.1623    0.7955 H   0  0  0  0  0  0  0  0  0  0  0  0
   15.5021   -8.9085    0.3090 H   0  0  0  0  0  0  0  0  0  0  0  0
   12.7265   -9.7598   -0.6845 H   0  0  0  0  0  0  0  0  0  0  0  0
   13.6491  -10.5463    0.5844 H   0  0  0  0  0  0  0  0  0  0  0  0
   15.4769  -11.0853   -1.0035 H   0  0  0  0  0  0  0  0  0  0  0  0
   14.6306  -10.2264   -2.3004 H   0  0  0  0  0  0  0  0  0  0  0  0
   14.2397  -12.4789   -2.7282 H   0  0  0  0  0  0  0  0  0  0  0  0
   12.7251  -11.8574   -2.1046 H   0  0  0  0  0  0  0  0  0  0  0  0
   11.4351  -15.8637   -1.1570 H   0  0  0  0  0  0  0  0  0  0  0  0
    9.0022  -16.0923   -0.9964 H   0  0  0  0  0  0  0  0  0  0  0  0
    7.8803  -15.8228    1.2063 H   0  0  0  0  0  0  0  0  0  0  0  0
    9.2440  -15.6616    3.2598 H   0  0  0  0  0  0  0  0  0  0  0  0
   11.5272  -15.4355    4.3181 H   0  0  0  0  0  0  0  0  0  0  0  0
   13.5965  -14.7132    5.3199 H   0  0  0  0  0  0  0  0  0  0  0  0
   15.1825  -12.8290    5.2980 H   0  0  0  0  0  0  0  0  0  0  0  0
   15.8346  -11.7896    3.1494 H   0  0  0  0  0  0  0  0  0  0  0  0
   14.9894  -12.6827    1.0659 H   0  0  0  0  0  0  0  0  0  0  0  0
   11.8543   -7.3034    5.2610 H   0  0  0  0  0  0  0  0  0  0  0  0
   13.8219   -9.0463    8.6745 H   0  0  0  0  0  0  0  0  0  0  0  0
   14.1422  -10.3146    7.5046 H   0  0  0  0  0  0  0  0  0  0  0  0
   12.5679  -10.2561    8.4129 H   0  0  0  0  0  0  0  0  0  0  0  0
   11.7519  -12.8392    7.7486 H   0  0  0  0  0  0  0  0  0  0  0  0
   13.1001  -13.4364    6.8575 H   0  0  0  0  0  0  0  0  0  0  0  0
   11.5134  -13.3984    6.0531 H   0  0  0  0  0  0  0  0  0  0  0  0
  1  2  1  0  0  0  0
  1 45  1  0  0  0  0
  1 46  1  0  0  0  0
  1 47  1  0  0  0  0
  2  3  1  0  0  0  0
  3  4  1  0  0  0  0
  3 42  2  0  0  0  0
  4  5  2  0  0  0  0
  4 48  1  0  0  0  0
  5  6  1  0  0  0  0
  5 38  1  0  0  0  0
  6  7  2  0  0  0  0
  6 49  1  0  0  0  0
  7  8  1  0  0  0  0
  7 50  1  0  0  0  0
  8  9  2  0  0  0  0
  8 10  1  0  0  0  0
 10 11  1  0  0  0  0
 11 12  1  0  0  0  0
 11 51  1  0  0  0  0
 11 52  1  0  0  0  0
 12 13  1  0  0  0  0
 12 53  1  0  0  0  0
 12 54  1  0  0  0  0
 13 14  1  0  0  0  0
 13 55  1  0  0  0  0
 13 56  1  0  0  0  0
 14 15  1  0  0  0  0
 14 16  1  0  0  0  0
 15 57  1  0  0  0  0
 15 58  1  0  0  0  0
 15 59  1  0  0  0  0
 16 17  1  0  0  0  0
 16 60  1  0  0  0  0
 16 61  1  0  0  0  0
 17 18  1  0  0  0  0
 17 62  1  0  0  0  0
 17 63  1  0  0  0  0
 18 19  1  0  0  0  0
 18 64  1  0  0  0  0
 18 65  1  0  0  0  0
 19 20  1  0  0  0  0
 19 66  1  0  0  0  0
 19 67  1  0  0  0  0
 20 21  1  0  0  0  0
 20 68  1  0  0  0  0
 20 69  1  0  0  0  0
 21 22  1  0  0  0  0
 22 23  2  0  0  0  0
 22 24  1  0  0  0  0
 24 25  1  0  0  0  0
 24 37  2  0  0  0  0
 25 26  1  0  0  0  0
 25 30  2  0  0  0  0
 26 27  2  0  0  0  0
 26 70  1  0  0  0  0
 27 28  1  0  0  0  0
 27 71  1  0  0  0  0
 28 29  2  0  0  0  0
 28 72  1  0  0  0  0
 29 30  1  0  0  0  0
 29 73  1  0  0  0  0
 30 31  1  0  0  0  0
 31 32  2  0  0  0  0
 31 74  1  0  0  0  0
 32 33  1  0  0  0  0
 32 37  1  0  0  0  0
 33 34  2  0  0  0  0
 33 75  1  0  0  0  0
 34 35  1  0  0  0  0
 34 76  1  0  0  0  0
 35 36  2  0  0  0  0
 35 77  1  0  0  0  0
 36 37  1  0  0  0  0
 36 78  1  0  0  0  0
 38 39  2  0  0  0  0
 38 79  1  0  0  0  0
 39 40  1  0  0  0  0
 39 42  1  0  0  0  0
 40 41  1  0  0  0  0
 41 80  1  0  0  0  0
 41 81  1  0  0  0  0
 41 82  1  0  0  0  0
 42 43  1  0  0  0  0
 43 44  1  0  0  0  0
 44 83  1  0  0  0  0
 44 84  1  0  0  0  0
 44 85  1  0  0  0  0
M  END
>  <Energy>
182.137

$$$$