12
 OpenBabel03292021423D

105110  0  0  0  0  0  0  0  0999 V2000
    9.5527    9.1257    2.3537 C   0  0  0  0  0  0  0  0  0  0  0  0
   10.3227    7.9347    2.3153 O   0  0  0  0  0  0  0  0  0  0  0  0
   10.3806    7.3187    3.5975 C   0  0  0  0  0  0  0  0  0  0  0  0
   11.2071    6.0651    3.4960 C   0  0  0  0  0  0  0  0  0  0  0  0
   11.2622    5.4507    4.7752 O   0  0  0  0  0  0  0  0  0  0  0  0
   12.0373    4.2466    4.7579 C   0  0  0  0  0  0  0  0  0  0  0  0
   12.0595    3.6347    6.1361 C   0  0  0  0  0  0  0  0  0  0  0  0
   12.8333    2.4354    6.1071 O   0  0  0  0  0  0  0  0  0  0  0  0
   12.8811    1.8209    7.3992 C   0  0  0  0  0  0  0  0  0  0  0  0
   13.7153    0.5479    7.3220 C   0  0  0  0  0  0  0  0  0  0  0  0
   13.7562   -0.0581    8.6215 O   0  0  0  0  0  0  0  0  0  0  0  0
   14.4788   -1.2216    8.7056 C   0  0  0  0  0  0  0  0  0  0  0  0
   15.0701   -1.6446    7.5122 C   0  0  0  0  0  0  0  0  0  0  0  0
   15.8006   -2.8250    7.4790 C   0  0  0  0  0  0  0  0  0  0  0  0
   15.9489   -3.6061    8.6313 C   0  0  0  0  0  0  0  0  0  0  0  0
   15.3350   -3.2048    9.8124 C   0  0  0  0  0  0  0  0  0  0  0  0
   14.5803   -2.0270    9.8582 C   0  0  0  0  0  0  0  0  0  0  0  0
   13.8923   -1.6368   10.9731 O   0  0  0  0  0  0  0  0  0  0  0  0
   13.9914   -2.4441   12.1362 C   0  0  0  0  0  0  0  0  0  0  0  0
   16.8121   -4.8386    8.5527 C   0  0  0  0  0  0  0  0  0  0  0  0
   16.5881   -5.6320    7.3267 N   0  0  0  0  0  0  0  0  0  0  0  0
   17.8185   -6.3553    7.0015 C   0  0  0  0  0  0  0  0  0  0  0  0
   18.2268   -7.3008    8.1355 C   0  0  0  0  0  0  0  0  0  0  0  0
   19.4750   -8.0344    7.8005 C   0  0  0  0  0  0  0  0  0  0  0  0
   20.7387   -7.5350    8.1249 C   0  0  0  0  0  0  0  0  0  0  0  0
   21.8821   -8.1544    7.6065 C   0  0  0  0  0  0  0  0  0  0  0  0
   21.7772   -9.3694    6.9101 C   0  0  0  0  0  0  0  0  0  0  0  0
   22.9295  -10.0981    6.5221 N   0  0  0  0  0  0  0  0  0  0  0  0
   24.2373   -9.6788    6.7946 C   0  0  0  0  0  0  0  0  0  0  0  0
   24.5729   -8.6575    7.3892 O   0  0  0  0  0  0  0  0  0  0  0  0
   25.3765  -10.4920    6.3101 C   0  0  0  0  0  0  0  0  0  0  0  0
   25.2488  -11.8686    6.1649 C   0  0  0  0  0  0  0  0  0  0  0  0
   26.3933  -12.6615    5.9686 C   0  0  0  0  0  0  0  0  0  0  0  0
   27.6814  -12.0828    5.7807 C   0  0  0  0  0  0  0  0  0  0  0  0
   28.7816  -13.0155    5.3943 C   0  0  0  0  0  0  0  0  0  0  0  0
   29.7411  -12.6919    4.7094 O   0  0  0  0  0  0  0  0  0  0  0  0
   28.6548  -14.2459    5.9846 O   0  0  0  0  0  0  0  0  0  0  0  0
   29.7445  -15.1674    5.7564 C   0  0  0  0  0  0  0  0  0  0  0  0
   27.8069  -10.6841    5.9587 C   0  0  0  0  0  0  0  0  0  0  0  0
   29.0804  -10.0291    5.9149 N   0  0  0  0  0  0  0  0  0  0  0  0
   29.6486   -9.2883    6.9611 C   0  0  0  0  0  0  0  0  0  0  0  0
   29.1463   -9.0903    8.0634 O   0  0  0  0  0  0  0  0  0  0  0  0
   30.9831   -8.6524    6.7072 C   0  0  0  0  0  0  0  0  0  0  0  0
   31.2364   -7.4647    7.4051 C   0  0  0  0  0  0  0  0  0  0  0  0
   32.3187   -6.6628    7.0416 C   0  0  0  0  0  0  0  0  0  0  0  0
   33.2674   -7.0613    6.0959 C   0  0  0  0  0  0  0  0  0  0  0  0
   34.4549   -6.4542    5.9903 N   0  0  0  0  0  0  0  0  0  0  0  0
   35.3407   -6.9696    5.1051 C   0  0  0  0  0  0  0  0  0  0  0  0
   35.0269   -7.2506    3.8257 C   0  0  0  0  0  0  0  0  0  0  0  0
   33.9465   -8.0932    4.0787 C   0  0  0  0  0  0  0  0  0  0  0  0
   32.9992   -8.1201    5.2590 C   0  0  0  0  0  0  0  0  0  0  0  0
   31.8524   -8.9826    5.6411 C   0  0  0  0  0  0  0  0  0  0  0  0
   26.6431   -9.9252    6.2200 C   0  0  0  0  0  0  0  0  0  0  0  0
   20.4886   -9.8532    6.6427 C   0  0  0  0  0  0  0  0  0  0  0  0
   19.3538   -9.2074    7.0817 C   0  0  0  0  0  0  0  0  0  0  0  0
   16.1325   -4.8406    6.1693 C   0  0  0  0  0  0  0  0  0  0  0  0
   16.4208   -3.3527    6.2296 C   0  0  0  0  0  0  0  0  0  0  0  0
    9.5376    9.5636    1.3524 H   0  0  0  0  0  0  0  0  0  0  0  0
   10.0057    9.8410    3.0465 H   0  0  0  0  0  0  0  0  0  0  0  0
    8.5266    8.8970    2.6561 H   0  0  0  0  0  0  0  0  0  0  0  0
    9.3696    7.0738    3.9532 H   0  0  0  0  0  0  0  0  0  0  0  0
   10.8250    8.0029    4.3342 H   0  0  0  0  0  0  0  0  0  0  0  0
   12.2195    6.3039    3.1508 H   0  0  0  0  0  0  0  0  0  0  0  0
   10.7648    5.3764    2.7657 H   0  0  0  0  0  0  0  0  0  0  0  0
   13.0723    4.5008    4.4408 H   0  0  0  0  0  0  0  0  0  0  0  0
   11.6187    3.5447    4.0319 H   0  0  0  0  0  0  0  0  0  0  0  0
   11.0401    3.4101    6.4461 H   0  0  0  0  0  0  0  0  0  0  0  0
   12.4555    4.3420    6.8563 H   0  0  0  0  0  0  0  0  0  0  0  0
   11.8717    1.5819    7.7554 H   0  0  0  0  0  0  0  0  0  0  0  0
   13.3490    2.5116    8.1207 H   0  0  0  0  0  0  0  0  0  0  0  0
   14.6991    0.8510    6.9583 H   0  0  0  0  0  0  0  0  0  0  0  0
   13.2881   -0.1461    6.5858 H   0  0  0  0  0  0  0  0  0  0  0  0
   14.9555   -1.0639    6.5995 H   0  0  0  0  0  0  0  0  0  0  0  0
   15.4399   -3.8418   10.6818 H   0  0  0  0  0  0  0  0  0  0  0  0
   13.4302   -1.9500   12.9338 H   0  0  0  0  0  0  0  0  0  0  0  0
   15.0307   -2.5371   12.4693 H   0  0  0  0  0  0  0  0  0  0  0  0
   13.5373   -3.4236   11.9606 H   0  0  0  0  0  0  0  0  0  0  0  0
   16.6434   -5.4809    9.4274 H   0  0  0  0  0  0  0  0  0  0  0  0
   17.8567   -4.4977    8.6123 H   0  0  0  0  0  0  0  0  0  0  0  0
   18.6152   -5.6201    6.8190 H   0  0  0  0  0  0  0  0  0  0  0  0
   17.6990   -6.9247    6.0699 H   0  0  0  0  0  0  0  0  0  0  0  0
   17.4956   -8.0791    8.3523 H   0  0  0  0  0  0  0  0  0  0  0  0
   18.3451   -6.7409    9.0703 H   0  0  0  0  0  0  0  0  0  0  0  0
   20.8277   -6.6598    8.7688 H   0  0  0  0  0  0  0  0  0  0  0  0
   22.8355   -7.6477    7.7264 H   0  0  0  0  0  0  0  0  0  0  0  0
   22.7732  -10.9280    5.9626 H   0  0  0  0  0  0  0  0  0  0  0  0
   24.2576  -12.3184    6.2067 H   0  0  0  0  0  0  0  0  0  0  0  0
   26.2716  -13.7476    5.9769 H   0  0  0  0  0  0  0  0  0  0  0  0
   29.5091  -16.1153    6.2567 H   0  0  0  0  0  0  0  0  0  0  0  0
   30.6824  -14.7903    6.1793 H   0  0  0  0  0  0  0  0  0  0  0  0
   29.8575  -15.3710    4.6873 H   0  0  0  0  0  0  0  0  0  0  0  0
   29.6257  -10.2103    5.0712 H   0  0  0  0  0  0  0  0  0  0  0  0
   30.5828   -7.1512    8.2241 H   0  0  0  0  0  0  0  0  0  0  0  0
   32.4152   -5.6696    7.4815 H   0  0  0  0  0  0  0  0  0  0  0  0
   35.9019   -7.8805    5.4097 H   0  0  0  0  0  0  0  0  0  0  0  0
   35.8866   -6.5618    3.6401 H   0  0  0  0  0  0  0  0  0  0  0  0
   33.7384   -8.8884    3.3733 H   0  0  0  0  0  0  0  0  0  0  0  0
   31.5761   -9.8470    5.0393 H   0  0  0  0  0  0  0  0  0  0  0  0
   26.6797   -8.8623    6.4000 H   0  0  0  0  0  0  0  0  0  0  0  0
   20.3014  -10.7414    6.0627 H   0  0  0  0  0  0  0  0  0  0  0  0
   18.3816   -9.6324    6.8538 H   0  0  0  0  0  0  0  0  0  0  0  0
   15.0644   -5.0464    6.0252 H   0  0  0  0  0  0  0  0  0  0  0  0
   16.5955   -5.1340    5.2335 H   0  0  0  0  0  0  0  0  0  0  0  0
   16.0060   -2.8905    5.3295 H   0  0  0  0  0  0  0  0  0  0  0  0
   17.5062   -3.1902    6.2319 H   0  0  0  0  0  0  0  0  0  0  0  0
  1  2  1  0  0  0  0
  1 58  1  0  0  0  0
  1 59  1  0  0  0  0
  1 60  1  0  0  0  0
  2  3  1  0  0  0  0
  3  4  1  0  0  0  0
  3 61  1  0  0  0  0
  3 62  1  0  0  0  0
  4  5  1  0  0  0  0
  4 63  1  0  0  0  0
  4 64  1  0  0  0  0
  5  6  1  0  0  0  0
  6  7  1  0  0  0  0
  6 65  1  0  0  0  0
  6 66  1  0  0  0  0
  7  8  1  0  0  0  0
  7 67  1  0  0  0  0
  7 68  1  0  0  0  0
  8  9  1  0  0  0  0
  9 10  1  0  0  0  0
  9 69  1  0  0  0  0
  9 70  1  0  0  0  0
 10 11  1  0  0  0  0
 10 71  1  0  0  0  0
 10 72  1  0  0  0  0
 11 12  1  0  0  0  0
 12 13  1  0  0  0  0
 12 17  2  0  0  0  0
 13 14  2  0  0  0  0
 13 73  1  0  0  0  0
 14 15  1  0  0  0  0
 14 57  1  0  0  0  0
 15 16  2  0  0  0  0
 15 20  1  0  0  0  0
 16 17  1  0  0  0  0
 16 74  1  0  0  0  0
 17 18  1  0  0  0  0
 18 19  1  0  0  0  0
 19 75  1  0  0  0  0
 19 76  1  0  0  0  0
 19 77  1  0  0  0  0
 20 21  1  0  0  0  0
 20 78  1  0  0  0  0
 20 79  1  0  0  0  0
 21 22  1  0  0  0  0
 21 56  1  0  0  0  0
 22 23  1  0  0  0  0
 22 80  1  0  0  0  0
 22 81  1  0  0  0  0
 23 24  1  0  0  0  0
 23 82  1  0  0  0  0
 23 83  1  0  0  0  0
 24 25  1  0  0  0  0
 24 55  2  0  0  0  0
 25 26  2  0  0  0  0
 25 84  1  0  0  0  0
 26 27  1  0  0  0  0
 26 85  1  0  0  0  0
 27 28  1  0  0  0  0
 27 54  2  0  0  0  0
 28 29  1  0  0  0  0
 28 86  1  0  0  0  0
 29 30  2  0  0  0  0
 29 31  1  0  0  0  0
 31 32  1  0  0  0  0
 31 53  2  0  0  0  0
 32 33  2  0  0  0  0
 32 87  1  0  0  0  0
 33 34  1  0  0  0  0
 33 88  1  0  0  0  0
 34 35  1  0  0  0  0
 34 39  2  0  0  0  0
 35 36  2  0  0  0  0
 35 37  1  0  0  0  0
 37 38  1  0  0  0  0
 38 89  1  0  0  0  0
 38 90  1  0  0  0  0
 38 91  1  0  0  0  0
 39 40  1  0  0  0  0
 39 53  1  0  0  0  0
 40 41  1  0  0  0  0
 40 92  1  0  0  0  0
 41 42  2  0  0  0  0
 41 43  1  0  0  0  0
 43 44  1  0  0  0  0
 43 52  2  0  0  0  0
 44 45  2  0  0  0  0
 44 93  1  0  0  0  0
 45 46  1  0  0  0  0
 45 94  1  0  0  0  0
 46 47  1  0  0  0  0
 46 51  2  0  0  0  0
 47 48  2  0  0  0  0
 48 49  1  0  0  0  0
 48 95  1  0  0  0  0
 49 50  2  0  0  0  0
 49 96  1  0  0  0  0
 50 51  1  0  0  0  0
 50 97  1  0  0  0  0
 51 52  1  0  0  0  0
 52 98  1  0  0  0  0
 53 99  1  0  0  0  0
 54 55  1  0  0  0  0
 54100  1  0  0  0  0
 55101  1  0  0  0  0
 56 57  1  0  0  0  0
 56102  1  0  0  0  0
 56103  1  0  0  0  0
 57104  1  0  0  0  0
 57105  1  0  0  0  0
M  END
>  <Energy>
397.959

$$$$