122185096
  -OEChem-03242010103D

 76 80  0     1  0  0  0  0  0999 V2000
   -7.8840    1.4078   -0.4202 O   0  0  0  0  0  0  0  0  0  0  0  0
   -6.4168    2.8232   -1.5148 O   0  0  0  0  0  0  0  0  0  0  0  0
   -1.6086   -1.8071    1.6564 O   0  0  0  0  0  0  0  0  0  0  0  0
    0.9567   -2.7398    0.8653 O   0  0  0  0  0  0  0  0  0  0  0  0
    0.1479    1.7663    0.3206 O   0  0  0  0  0  0  0  0  0  0  0  0
    4.3358    4.6131    1.2782 O   0  0  0  0  0  0  0  0  0  0  0  0
    5.1816   -4.2666   -1.6816 O   0  0  0  0  0  0  0  0  0  0  0  0
    5.7928    4.4856   -1.0858 O   0  0  0  0  0  0  0  0  0  0  0  0
    7.2686   -3.5817    0.0223 O   0  0  0  0  0  0  0  0  0  0  0  0
   -2.1647    0.0311    0.3294 N   0  0  0  0  0  0  0  0  0  0  0  0
    0.0906   -0.5671    0.6610 N   0  0  0  0  0  0  0  0  0  0  0  0
   -7.8071    0.2336    0.4324 C   0  0  1  0  0  0  0  0  0  0  0  0
   -8.5719   -0.9035   -0.2216 C   0  0  0  0  0  0  0  0  0  0  0  0
   -6.3483    0.0049    0.5261 C   0  0  0  0  0  0  0  0  0  0  0  0
  -10.0750   -0.6245   -0.2540 C   0  0  0  0  0  0  0  0  0  0  0  0
   -5.6788    0.9714   -0.1982 C   0  0  0  0  0  0  0  0  0  0  0  0
  -10.8444   -1.7864   -0.8819 C   0  0  0  0  0  0  0  0  0  0  0  0
   -5.6423   -0.9718    1.2062 C   0  0  0  0  0  0  0  0  0  0  0  0
   -6.6517    1.8645   -0.8067 C   0  0  0  0  0  0  0  0  0  0  0  0
   -4.2998    1.0161   -0.2904 C   0  0  0  0  0  0  0  0  0  0  0  0
   -3.5792    0.0334    0.3891 C   0  0  0  0  0  0  0  0  0  0  0  0
   -4.2459   -0.9543    1.1334 C   0  0  0  0  0  0  0  0  0  0  0  0
  -12.3423   -1.5259   -0.8847 C   0  0  0  0  0  0  0  0  0  0  0  0
    2.3565   -0.8783    0.3518 C   0  0  0  0  0  0  0  0  0  0  0  0
    2.1187    0.4319    0.1842 C   0  0  0  0  0  0  0  0  0  0  0  0
   -1.2805   -0.8646    0.9343 C   0  0  0  0  0  0  0  0  0  0  0  0
    0.6699    0.6644    0.3922 C   0  0  0  0  0  0  0  0  0  0  0  0
    1.0670   -1.5410    0.6562 C   0  0  0  0  0  0  0  0  0  0  0  0
    3.6364   -1.5847    0.2634 C   0  0  0  0  0  0  0  0  0  0  0  0
    3.0762    1.4902   -0.1442 C   0  0  0  0  0  0  0  0  0  0  0  0
    3.8076   -2.6018   -0.6756 C   0  0  0  0  0  0  0  0  0  0  0  0
    3.2566    2.5625    0.7293 C   0  0  0  0  0  0  0  0  0  0  0  0
    3.8075    1.4262   -1.3303 C   0  0  0  0  0  0  0  0  0  0  0  0
    4.6837   -1.2410    1.1182 C   0  0  0  0  0  0  0  0  0  0  0  0
    4.1683    3.5710    0.4170 C   0  0  0  0  0  0  0  0  0  0  0  0
    5.0263   -3.2752   -0.7602 C   0  0  0  0  0  0  0  0  0  0  0  0
    5.9023   -1.9146    1.0339 C   0  0  0  0  0  0  0  0  0  0  0  0
    4.7190    2.4348   -1.6428 C   0  0  0  0  0  0  0  0  0  0  0  0
    6.0737   -2.9316    0.0946 C   0  0  0  0  0  0  0  0  0  0  0  0
    4.8995    3.5071   -0.7691 C   0  0  0  0  0  0  0  0  0  0  0  0
    3.5499    4.6028    2.4684 C   0  0  0  0  0  0  0  0  0  0  0  0
    4.0623   -4.5558   -2.5168 C   0  0  0  0  0  0  0  0  0  0  0  0
    8.2867   -3.1690    0.9323 C   0  0  0  0  0  0  0  0  0  0  0  0
    6.4992    4.3443   -2.3170 C   0  0  0  0  0  0  0  0  0  0  0  0
   -8.2210    0.5005    1.4112 H   0  0  0  0  0  0  0  0  0  0  0  0
   -8.2187   -1.0556   -1.2501 H   0  0  0  0  0  0  0  0  0  0  0  0
   -8.3921   -1.8388    0.3230 H   0  0  0  0  0  0  0  0  0  0  0  0
  -10.2739    0.2922   -0.8221 H   0  0  0  0  0  0  0  0  0  0  0  0
  -10.4379   -0.4560    0.7674 H   0  0  0  0  0  0  0  0  0  0  0  0
  -10.6428   -2.7103   -0.3272 H   0  0  0  0  0  0  0  0  0  0  0  0
  -10.5038   -1.9452   -1.9116 H   0  0  0  0  0  0  0  0  0  0  0  0
   -6.1541   -1.7340    1.7843 H   0  0  0  0  0  0  0  0  0  0  0  0
   -3.8012    1.7863   -0.8693 H   0  0  0  0  0  0  0  0  0  0  0  0
   -3.7499   -1.7420    1.6821 H   0  0  0  0  0  0  0  0  0  0  0  0
  -12.7201   -1.3964    0.1346 H   0  0  0  0  0  0  0  0  0  0  0  0
  -12.8727   -2.3687   -1.3389 H   0  0  0  0  0  0  0  0  0  0  0  0
  -12.5826   -0.6247   -1.4577 H   0  0  0  0  0  0  0  0  0  0  0  0
   -1.7552    0.7673   -0.2395 H   0  0  0  0  0  0  0  0  0  0  0  0
    2.9625   -2.8244   -1.3192 H   0  0  0  0  0  0  0  0  0  0  0  0
    2.6667    2.5594    1.6404 H   0  0  0  0  0  0  0  0  0  0  0  0
    3.6751    0.6024   -2.0277 H   0  0  0  0  0  0  0  0  0  0  0  0
    4.5668   -0.4563    1.8620 H   0  0  0  0  0  0  0  0  0  0  0  0
    5.2503    2.3198   -2.5813 H   0  0  0  0  0  0  0  0  0  0  0  0
    6.6698   -1.5954    1.7304 H   0  0  0  0  0  0  0  0  0  0  0  0
    4.3620   -5.3689   -3.1863 H   0  0  0  0  0  0  0  0  0  0  0  0
    3.8010   -3.7025   -3.1520 H   0  0  0  0  0  0  0  0  0  0  0  0
    3.2086   -4.9219   -1.9362 H   0  0  0  0  0  0  0  0  0  0  0  0
    3.8099    5.5041    3.0335 H   0  0  0  0  0  0  0  0  0  0  0  0
    3.7948    3.7470    3.1068 H   0  0  0  0  0  0  0  0  0  0  0  0
    2.4791    4.6661    2.2463 H   0  0  0  0  0  0  0  0  0  0  0  0
    9.1664   -3.7904    0.7347 H   0  0  0  0  0  0  0  0  0  0  0  0
    5.8214    4.3742   -3.1770 H   0  0  0  0  0  0  0  0  0  0  0  0
    7.1348    3.4522   -2.3175 H   0  0  0  0  0  0  0  0  0  0  0  0
    7.1651    5.2088   -2.4073 H   0  0  0  0  0  0  0  0  0  0  0  0
    8.5863   -2.1298    0.7585 H   0  0  0  0  0  0  0  0  0  0  0  0
    7.9962   -3.3512    1.9726 H   0  0  0  0  0  0  0  0  0  0  0  0
  1 12  1  0  0  0  0
  1 19  1  0  0  0  0
  2 19  2  0  0  0  0
  3 26  2  0  0  0  0
  4 28  2  0  0  0  0
  5 27  2  0  0  0  0
  6 35  1  0  0  0  0
  6 41  1  0  0  0  0
  7 36  1  0  0  0  0
  7 42  1  0  0  0  0
  8 40  1  0  0  0  0
  8 44  1  0  0  0  0
  9 39  1  0  0  0  0
  9 43  1  0  0  0  0
 10 21  1  0  0  0  0
 10 26  1  0  0  0  0
 10 58  1  0  0  0  0
 11 26  1  0  0  0  0
 11 27  1  0  0  0  0
 11 28  1  0  0  0  0
 12 13  1  0  0  0  0
 12 14  1  0  0  0  0
 12 45  1  0  0  0  0
 13 15  1  0  0  0  0
 13 46  1  0  0  0  0
 13 47  1  0  0  0  0
 14 16  2  0  0  0  0
 14 18  1  0  0  0  0
 15 17  1  0  0  0  0
 15 48  1  0  0  0  0
 15 49  1  0  0  0  0
 16 19  1  0  0  0  0
 16 20  1  0  0  0  0
 17 23  1  0  0  0  0
 17 50  1  0  0  0  0
 17 51  1  0  0  0  0
 18 22  2  0  0  0  0
 18 52  1  0  0  0  0
 20 21  2  0  0  0  0
 20 53  1  0  0  0  0
 21 22  1  0  0  0  0
 22 54  1  0  0  0  0
 23 55  1  0  0  0  0
 23 56  1  0  0  0  0
 23 57  1  0  0  0  0
 24 25  2  0  0  0  0
 24 28  1  0  0  0  0
 24 29  1  0  0  0  0
 25 27  1  0  0  0  0
 25 30  1  0  0  0  0
 29 31  2  0  0  0  0
 29 34  1  0  0  0  0
 30 32  2  0  0  0  0
 30 33  1  0  0  0  0
 31 36  1  0  0  0  0
 31 59  1  0  0  0  0
 32 35  1  0  0  0  0
 32 60  1  0  0  0  0
 33 38  2  0  0  0  0
 33 61  1  0  0  0  0
 34 37  2  0  0  0  0
 34 62  1  0  0  0  0
 35 40  2  0  0  0  0
 36 39  2  0  0  0  0
 37 39  1  0  0  0  0
 37 64  1  0  0  0  0
 38 40  1  0  0  0  0
 38 63  1  0  0  0  0
 41 68  1  0  0  0  0
 41 69  1  0  0  0  0
 41 70  1  0  0  0  0
 42 65  1  0  0  0  0
 42 66  1  0  0  0  0
 42 67  1  0  0  0  0
 43 71  1  0  0  0  0
 43 75  1  0  0  0  0
 43 76  1  0  0  0  0
 44 72  1  0  0  0  0
 44 73  1  0  0  0  0
 44 74  1  0  0  0  0
M  END
> <PUBCHEM_COMPOUND_CID>
122185096

> <PUBCHEM_CONFORMER_RMSD>
1.2

> <PUBCHEM_CONFORMER_DIVERSEORDER>
14
54
105
59
122
106
93
101
128
61
130
58
69
141
94
107
96
134
78
89
100
123
47
67
131
81
32
129
97
112
137
62
140
117
86
85
45
99
12
118
6
84
73
98
90
80
42
138
139
116
26
79
104
88
4
74
113
39
65
68
48
36
119
52
115
87
60
37
132
136
76
108
41
43
120
127
111
57
72
109
35
55
92
20
121
31
44
70
114
91
83
103
135
110
126
15
56
82
66
75
133
27
124
63
19
49
17
46
51
71
21
53
95
5
23
102
40
64
38
24
10
30
11
25
77
8
16
7
2
28
18
1
33
125
9
3
34
13
50
29
22

> <PUBCHEM_MMFF94_PARTIAL_CHARGES>
50
1 -0.43
10 -0.55
11 -0.18
12 0.42
14 -0.14
16 0.09
18 -0.15
19 0.63
2 -0.57
20 -0.15
21 0.12
22 -0.15
24 -0.01
25 -0.01
26 0.69
27 0.62
28 0.62
29 0.03
3 -0.57
30 0.03
31 -0.15
32 -0.15
33 -0.15
34 -0.15
35 0.08
36 0.08
37 -0.15
38 -0.15
39 0.08
4 -0.57
40 0.08
41 0.28
42 0.28
43 0.28
44 0.28
5 -0.57
52 0.15
53 0.15
54 0.15
58 0.37
59 0.15
6 -0.36
60 0.15
61 0.15
62 0.15
63 0.15
64 0.15
7 -0.36
8 -0.36
9 -0.36

> <PUBCHEM_EFFECTIVE_ROTOR_COUNT>
12.6

> <PUBCHEM_PHARMACOPHORE_FEATURES>
15
1 10 donor
1 2 acceptor
1 23 hydrophobe
1 3 acceptor
1 4 acceptor
1 5 acceptor
1 6 acceptor
1 7 acceptor
1 8 acceptor
1 9 acceptor
5 1 12 14 16 19 rings
5 11 24 25 27 28 rings
6 14 16 18 20 21 22 rings
6 29 31 34 36 37 39 rings
6 30 32 33 35 38 40 rings

> <PUBCHEM_HEAVY_ATOM_COUNT>
44

> <PUBCHEM_ATOM_DEF_STEREO_COUNT>
0

> <PUBCHEM_ATOM_UDEF_STEREO_COUNT>
1

> <PUBCHEM_BOND_DEF_STEREO_COUNT>
0

> <PUBCHEM_BOND_UDEF_STEREO_COUNT>
0

> <PUBCHEM_ISOTOPIC_ATOM_COUNT>
0

> <PUBCHEM_COMPONENT_COUNT>
1

> <PUBCHEM_CACTVS_TAUTO_COUNT>
5

> <PUBCHEM_CONFORMER_ID>
074865880000000E

> <PUBCHEM_MMFF94_ENERGY>
159.0796

> <PUBCHEM_FEATURE_SELFOVERLAP>
76.232

> <PUBCHEM_SHAPE_FINGERPRINT>
10050765 1 18189340224283433098
10677351 14 18334864956728658511
11297010 23 18339653334199267572
11607047 74 18059287768873313560
12741549 16 18198894830943143018
12857493 111 18337111138604048412
13540713 4 17968959598295564690
15347591 1 18262523714012403075
15439362 3 18188778374732480984
15444296 7 17917986157569819231
19053607 189 18116994584027152328
22311459 1 18261957323837637530
23569943 247 17550677608121607395
24771750 20 18336840787950460430
249057 25 17916878936712298785
3044373 193 18343303652025036087
335507 130 18272364266362170727
3411729 13 18114746053273611240
44317340 157 18342735239284722773
44880568 143 18335419011994746493
45377200 153 16414356857516085567
4625314 4 18410290295206330079
6004065 56 18341051814205758002
9831232 110 18340770317316549799
9962374 69 18342449335695920823

> <PUBCHEM_SHAPE_MULTIPOLES>
842.71
31.76
6.31
1.67
99.53
2.87
0.39
-10.99
9.14
-20.9
1.78
-2.37
0.52
0.04

> <PUBCHEM_SHAPE_SELFOVERLAP>
1844

> <PUBCHEM_SHAPE_VOLUME>
458.9

> <PUBCHEM_COORDINATE_TYPE>
2
5
10

$$$$