122185091
  -OEChem-03242010103D

 76 80  0     0  0  0  0  0  0999 V2000
   -4.0874    0.7933   -2.2171 Br  0  0  0  0  0  0  0  0  0  0  0  0
   -0.3564    0.3396    1.1929 O   0  0  0  0  0  0  0  0  0  0  0  0
    1.7652   -3.4340   -0.3822 O   0  0  0  0  0  0  0  0  0  0  0  0
   -0.8959   -3.7477    0.5744 O   0  0  0  0  0  0  0  0  0  0  0  0
    6.3666    0.0070   -2.6475 O   0  0  0  0  0  0  0  0  0  0  0  0
    2.0138    4.6653   -0.4779 O   0  0  0  0  0  0  0  0  0  0  0  0
    7.9291   -1.8400   -1.2781 O   0  0  0  0  0  0  0  0  0  0  0  0
    4.0733    5.0007    1.3588 O   0  0  0  0  0  0  0  0  0  0  0  0
   -2.7707   -2.7074    2.5358 O   0  0  0  0  0  0  0  0  0  0  0  0
   -5.7780    0.2454    0.3473 O   0  0  0  0  0  0  0  0  0  0  0  0
    0.2967   -1.7585    0.3431 N   0  0  0  0  0  0  0  0  0  0  0  0
    2.5083   -1.2013    0.0447 C   0  0  0  0  0  0  0  0  0  0  0  0
    1.8821   -0.0950    0.4792 C   0  0  0  0  0  0  0  0  0  0  0  0
    1.5069   -2.2911   -0.0373 C   0  0  0  0  0  0  0  0  0  0  0  0
    0.4592   -0.4366    0.7206 C   0  0  0  0  0  0  0  0  0  0  0  0
    2.4513    1.2347    0.7067 C   0  0  0  0  0  0  0  0  0  0  0  0
    3.9214   -1.3655   -0.3022 C   0  0  0  0  0  0  0  0  0  0  0  0
   -0.8775   -2.5294    0.4064 C   0  0  0  0  0  0  0  0  0  0  0  0
    1.9600    2.3331    0.0010 C   0  0  0  0  0  0  0  0  0  0  0  0
    4.4831   -0.5953   -1.3204 C   0  0  0  0  0  0  0  0  0  0  0  0
    3.4846    1.4032    1.6283 C   0  0  0  0  0  0  0  0  0  0  0  0
    4.7056   -2.2920    0.3849 C   0  0  0  0  0  0  0  0  0  0  0  0
   -2.1666   -1.8036    0.3973 C   0  0  0  0  0  0  0  0  0  0  0  0
    2.5020    3.6001    0.2171 C   0  0  0  0  0  0  0  0  0  0  0  0
    5.8292   -0.7513   -1.6514 C   0  0  0  0  0  0  0  0  0  0  0  0
    4.0268    2.6702    1.8442 C   0  0  0  0  0  0  0  0  0  0  0  0
    6.0515   -2.4483    0.0538 C   0  0  0  0  0  0  0  0  0  0  0  0
    6.6134   -1.6778   -0.9643 C   0  0  0  0  0  0  0  0  0  0  0  0
    3.5355    3.7686    1.1387 C   0  0  0  0  0  0  0  0  0  0  0  0
   -3.0614   -1.9214    1.4609 C   0  0  0  0  0  0  0  0  0  0  0  0
   -2.4820   -0.9931   -0.6933 C   0  0  0  0  0  0  0  0  0  0  0  0
   -4.2716   -1.2284    1.4340 C   0  0  0  0  0  0  0  0  0  0  0  0
   -4.5869   -0.4176    0.3435 C   0  0  0  0  0  0  0  0  0  0  0  0
   -3.6922   -0.3000   -0.7200 C   0  0  0  0  0  0  0  0  0  0  0  0
   -6.9603   -0.5487    0.4170 C   0  0  0  0  0  0  0  0  0  0  0  0
   -8.0641    0.1500   -0.3214 C   0  0  0  0  0  0  0  0  0  0  0  0
    5.4970    0.9304   -3.2997 C   0  0  0  0  0  0  0  0  0  0  0  0
    0.9572    4.4073   -1.4007 C   0  0  0  0  0  0  0  0  0  0  0  0
   -2.0802   -2.0908    3.6205 C   0  0  0  0  0  0  0  0  0  0  0  0
    5.1262    5.0861    2.3174 C   0  0  0  0  0  0  0  0  0  0  0  0
    8.6596   -2.8082   -0.5274 C   0  0  0  0  0  0  0  0  0  0  0  0
   -8.8982    1.0423    0.3520 C   0  0  0  0  0  0  0  0  0  0  0  0
   -8.2557   -0.0928   -1.6816 C   0  0  0  0  0  0  0  0  0  0  0  0
   -9.9238    1.6920   -0.3348 C   0  0  0  0  0  0  0  0  0  0  0  0
   -9.2813    0.5570   -2.3684 C   0  0  0  0  0  0  0  0  0  0  0  0
  -10.1153    1.4495   -1.6950 C   0  0  0  0  0  0  0  0  0  0  0  0
    3.8277    0.1026   -1.8315 H   0  0  0  0  0  0  0  0  0  0  0  0
    1.1593    2.1442   -0.7070 H   0  0  0  0  0  0  0  0  0  0  0  0
    3.8754    0.5607    2.1940 H   0  0  0  0  0  0  0  0  0  0  0  0
    4.2839   -2.8972    1.1840 H   0  0  0  0  0  0  0  0  0  0  0  0
    4.8256    2.7259    2.5756 H   0  0  0  0  0  0  0  0  0  0  0  0
    6.5993   -3.1858    0.6302 H   0  0  0  0  0  0  0  0  0  0  0  0
   -1.7848   -0.9074   -1.5241 H   0  0  0  0  0  0  0  0  0  0  0  0
   -4.9593   -1.3194    2.2711 H   0  0  0  0  0  0  0  0  0  0  0  0
   -7.2370   -0.6898    1.4690 H   0  0  0  0  0  0  0  0  0  0  0  0
   -6.8012   -1.5456   -0.0164 H   0  0  0  0  0  0  0  0  0  0  0  0
    6.0906    1.4500   -4.0591 H   0  0  0  0  0  0  0  0  0  0  0  0
    5.1276    1.6956   -2.6082 H   0  0  0  0  0  0  0  0  0  0  0  0
    4.6859    0.4174   -3.8279 H   0  0  0  0  0  0  0  0  0  0  0  0
    0.6920    5.3644   -1.8618 H   0  0  0  0  0  0  0  0  0  0  0  0
    0.0584    4.0399   -0.8937 H   0  0  0  0  0  0  0  0  0  0  0  0
    1.2811    3.7444   -2.2104 H   0  0  0  0  0  0  0  0  0  0  0  0
   -1.9474   -2.8365    4.4092 H   0  0  0  0  0  0  0  0  0  0  0  0
   -1.0936   -1.7403    3.3031 H   0  0  0  0  0  0  0  0  0  0  0  0
   -2.6632   -1.2564    4.0234 H   0  0  0  0  0  0  0  0  0  0  0  0
    5.4342    6.1358    2.3648 H   0  0  0  0  0  0  0  0  0  0  0  0
    4.7824    4.8103    3.3202 H   0  0  0  0  0  0  0  0  0  0  0  0
    8.7144   -2.5392    0.5330 H   0  0  0  0  0  0  0  0  0  0  0  0
    8.2668   -3.8190   -0.6818 H   0  0  0  0  0  0  0  0  0  0  0  0
    9.6858   -2.8046   -0.9094 H   0  0  0  0  0  0  0  0  0  0  0  0
    6.0045    4.5111    2.0046 H   0  0  0  0  0  0  0  0  0  0  0  0
   -8.7577    1.2414    1.4111 H   0  0  0  0  0  0  0  0  0  0  0  0
   -7.6109   -0.7842   -2.2176 H   0  0  0  0  0  0  0  0  0  0  0  0
  -10.5730    2.3874    0.1893 H   0  0  0  0  0  0  0  0  0  0  0  0
   -9.4300    0.3686   -3.4276 H   0  0  0  0  0  0  0  0  0  0  0  0
  -10.9137    1.9557   -2.2297 H   0  0  0  0  0  0  0  0  0  0  0  0
  1 34  1  0  0  0  0
  2 15  2  0  0  0  0
  3 14  2  0  0  0  0
  4 18  2  0  0  0  0
  5 25  1  0  0  0  0
  5 37  1  0  0  0  0
  6 24  1  0  0  0  0
  6 38  1  0  0  0  0
  7 28  1  0  0  0  0
  7 41  1  0  0  0  0
  8 29  1  0  0  0  0
  8 40  1  0  0  0  0
  9 30  1  0  0  0  0
  9 39  1  0  0  0  0
 10 33  1  0  0  0  0
 10 35  1  0  0  0  0
 11 14  1  0  0  0  0
 11 15  1  0  0  0  0
 11 18  1  0  0  0  0
 12 13  2  0  0  0  0
 12 14  1  0  0  0  0
 12 17  1  0  0  0  0
 13 15  1  0  0  0  0
 13 16  1  0  0  0  0
 16 19  2  0  0  0  0
 16 21  1  0  0  0  0
 17 20  2  0  0  0  0
 17 22  1  0  0  0  0
 18 23  1  0  0  0  0
 19 24  1  0  0  0  0
 19 48  1  0  0  0  0
 20 25  1  0  0  0  0
 20 47  1  0  0  0  0
 21 26  2  0  0  0  0
 21 49  1  0  0  0  0
 22 27  2  0  0  0  0
 22 50  1  0  0  0  0
 23 30  1  0  0  0  0
 23 31  2  0  0  0  0
 24 29  2  0  0  0  0
 25 28  2  0  0  0  0
 26 29  1  0  0  0  0
 26 51  1  0  0  0  0
 27 28  1  0  0  0  0
 27 52  1  0  0  0  0
 30 32  2  0  0  0  0
 31 34  1  0  0  0  0
 31 53  1  0  0  0  0
 32 33  1  0  0  0  0
 32 54  1  0  0  0  0
 33 34  2  0  0  0  0
 35 36  1  0  0  0  0
 35 55  1  0  0  0  0
 35 56  1  0  0  0  0
 36 42  2  0  0  0  0
 36 43  1  0  0  0  0
 37 57  1  0  0  0  0
 37 58  1  0  0  0  0
 37 59  1  0  0  0  0
 38 60  1  0  0  0  0
 38 61  1  0  0  0  0
 38 62  1  0  0  0  0
 39 63  1  0  0  0  0
 39 64  1  0  0  0  0
 39 65  1  0  0  0  0
 40 66  1  0  0  0  0
 40 67  1  0  0  0  0
 40 71  1  0  0  0  0
 41 68  1  0  0  0  0
 41 69  1  0  0  0  0
 41 70  1  0  0  0  0
 42 44  1  0  0  0  0
 42 72  1  0  0  0  0
 43 45  2  0  0  0  0
 43 73  1  0  0  0  0
 44 46  2  0  0  0  0
 44 74  1  0  0  0  0
 45 46  1  0  0  0  0
 45 75  1  0  0  0  0
 46 76  1  0  0  0  0
M  END
> <PUBCHEM_COMPOUND_CID>
122185091

> <PUBCHEM_CONFORMER_RMSD>
1.2

> <PUBCHEM_CONFORMER_DIVERSEORDER>
9
69
107
6
123
67
134
98
131
55
128
103
73
136
120
118
42
137
122
125
75
95
104
117
49
20
105
27
109
115
110
126
86
133
113
21
68
4
102
26
38
52
140
71
87
135
23
132
119
83
77
127
63
91
100
82
112
80
111
85
70
72
64
10
28
116
5
106
139
2
65
89
121
130
48
124
22
16
61
138
17
76
30
40
94
1
12
96
101
35
114
108
25
15
37
93
129
88
47
50
97
33
99
36
39
19
14
84
11
92
7
79
32
62
29
59
18
46
45
74
24
81
53
3
90
41
8
56
34
66
60
13
44
78
31
54
43
51
58
57

> <PUBCHEM_MMFF94_PARTIAL_CHARGES>
59
1 -0.11
10 -0.36
11 -0.18
12 -0.01
13 -0.01
14 0.62
15 0.62
16 0.03
17 0.03
18 0.54
19 -0.15
2 -0.57
20 -0.15
21 -0.15
22 -0.15
23 0.09
24 0.08
25 0.08
26 -0.15
27 -0.15
28 0.08
29 0.08
3 -0.57
30 0.08
31 -0.15
32 -0.15
33 0.08
34 0.11
35 0.42
36 -0.14
37 0.28
38 0.28
39 0.28
4 -0.57
40 0.28
41 0.28
42 -0.15
43 -0.15
44 -0.15
45 -0.15
46 -0.15
47 0.15
48 0.15
49 0.15
5 -0.36
50 0.15
51 0.15
52 0.15
53 0.15
54 0.15
6 -0.36
7 -0.36
72 0.15
73 0.15
74 0.15
75 0.15
76 0.15
8 -0.36
9 -0.36

> <PUBCHEM_EFFECTIVE_ROTOR_COUNT>
12.2

> <PUBCHEM_PHARMACOPHORE_FEATURES>
15
1 1 hydrophobe
1 10 acceptor
1 2 acceptor
1 3 acceptor
1 4 acceptor
1 5 acceptor
1 6 acceptor
1 7 acceptor
1 8 acceptor
1 9 acceptor
5 11 12 13 14 15 rings
6 16 19 21 24 26 29 rings
6 17 20 22 25 27 28 rings
6 23 30 31 32 33 34 rings
6 36 42 43 44 45 46 rings

> <PUBCHEM_HEAVY_ATOM_COUNT>
46

> <PUBCHEM_ATOM_DEF_STEREO_COUNT>
0

> <PUBCHEM_ATOM_UDEF_STEREO_COUNT>
0

> <PUBCHEM_BOND_DEF_STEREO_COUNT>
0

> <PUBCHEM_BOND_UDEF_STEREO_COUNT>
0

> <PUBCHEM_ISOTOPIC_ATOM_COUNT>
0

> <PUBCHEM_COMPONENT_COUNT>
1

> <PUBCHEM_CACTVS_TAUTO_COUNT>
1

> <PUBCHEM_CONFORMER_ID>
0748658300000009

> <PUBCHEM_MMFF94_ENERGY>
192.9436

> <PUBCHEM_FEATURE_SELFOVERLAP>
76.147

> <PUBCHEM_SHAPE_FINGERPRINT>
10050765 1 18198339761163666715
10165383 225 17822014168838120867
10816530 90 17967534609645817052
11017883 126 17489305253018279887
11297010 23 17916587682380618716
11386260 185 18272369788935849437
11621639 179 18335138704499905132
12107698 1 18201156568731025045
12741549 16 16988557950178911170
13383668 1 12031503229984837357
13540713 4 18193562387615094538
14068700 675 17989210296334617280
15198563 99 18125739907052584572
15439362 3 18198339757532818240
15840311 113 16988549209049836746
21033648 29 18113893918138756355
21133410 127 17684090566740245869
21223535 225 18129389211303248505
22311459 1 18342460300768721443
23576562 1 18339930436171536919
24204213 265 17704075054195167118
4066623 53 18408888408864181476
58083652 198 18341907277491777202
58902169 19 18060409232321552119
6086070 43 18411987991713202706
6371380 46 18260832596261544995

> <PUBCHEM_SHAPE_MULTIPOLES>
894.8
26.86
5.45
2.52
55.11
7.35
0.02
2.39
15.29
-11.18
-2.6
-0.64
0.47
5.46

> <PUBCHEM_SHAPE_SELFOVERLAP>
1950.785

> <PUBCHEM_SHAPE_VOLUME>
500

> <PUBCHEM_COORDINATE_TYPE>
2
5
10

$$$$