122185090
  -OEChem-03242010103D

 66 69  0     0  0  0  0  0  0999 V2000
   -7.0392   -0.1476   -2.4406 Br  0  0  0  0  0  0  0  0  0  0  0  0
    0.1439   -3.1946    0.0363 O   0  0  0  0  0  0  0  0  0  0  0  0
   -1.7140    0.9061   -0.9381 O   0  0  0  0  0  0  0  0  0  0  0  0
    1.0316    4.7878    1.1783 O   0  0  0  0  0  0  0  0  0  0  0  0
    5.1708   -3.3208   -1.1710 O   0  0  0  0  0  0  0  0  0  0  0  0
   -2.5621   -3.1466   -0.9552 O   0  0  0  0  0  0  0  0  0  0  0  0
    3.0482    5.2085   -0.6883 O   0  0  0  0  0  0  0  0  0  0  0  0
    6.4176   -2.1728    1.0325 O   0  0  0  0  0  0  0  0  0  0  0  0
   -2.9617   -0.7589    1.9840 O   0  0  0  0  0  0  0  0  0  0  0  0
   -7.1112    0.9822    0.4667 O   0  0  0  0  0  0  0  0  0  0  0  0
   -1.2063   -1.3319   -0.4063 N   0  0  0  0  0  0  0  0  0  0  0  0
    0.4998    0.2138   -0.3680 C   0  0  0  0  0  0  0  0  0  0  0  0
    1.0476   -0.9844   -0.1051 C   0  0  0  0  0  0  0  0  0  0  0  0
   -0.9526    0.0155   -0.5944 C   0  0  0  0  0  0  0  0  0  0  0  0
   -0.0309   -2.0005   -0.1519 C   0  0  0  0  0  0  0  0  0  0  0  0
    1.1626    1.5171   -0.4490 C   0  0  0  0  0  0  0  0  0  0  0  0
    2.4479   -1.2959    0.1888 C   0  0  0  0  0  0  0  0  0  0  0  0
   -2.4382   -1.9976   -0.5343 C   0  0  0  0  0  0  0  0  0  0  0  0
    3.1559   -2.1693   -0.6368 C   0  0  0  0  0  0  0  0  0  0  0  0
    0.7815    2.5476    0.4103 C   0  0  0  0  0  0  0  0  0  0  0  0
    2.1746    1.7283   -1.3855 C   0  0  0  0  0  0  0  0  0  0  0  0
    3.0738   -0.7198    1.2943 C   0  0  0  0  0  0  0  0  0  0  0  0
   -3.6635   -1.2139   -0.2645 C   0  0  0  0  0  0  0  0  0  0  0  0
    1.4124    3.7893    0.3334 C   0  0  0  0  0  0  0  0  0  0  0  0
    4.4897   -2.4666   -0.3571 C   0  0  0  0  0  0  0  0  0  0  0  0
    2.8054    2.9701   -1.4626 C   0  0  0  0  0  0  0  0  0  0  0  0
    4.4075   -1.0172    1.5741 C   0  0  0  0  0  0  0  0  0  0  0  0
    5.1155   -1.8906    0.7484 C   0  0  0  0  0  0  0  0  0  0  0  0
    2.4244    4.0006   -0.6031 C   0  0  0  0  0  0  0  0  0  0  0  0
   -3.8768   -0.6265    0.9826 C   0  0  0  0  0  0  0  0  0  0  0  0
   -4.6117   -1.0656   -1.2767 C   0  0  0  0  0  0  0  0  0  0  0  0
   -5.0383    0.1094    1.2174 C   0  0  0  0  0  0  0  0  0  0  0  0
   -5.7732   -0.3297   -1.0419 C   0  0  0  0  0  0  0  0  0  0  0  0
   -5.9864    0.2579    0.2051 C   0  0  0  0  0  0  0  0  0  0  0  0
   -0.0102    4.4897    2.1056 C   0  0  0  0  0  0  0  0  0  0  0  0
    4.4578   -3.8662   -2.2794 C   0  0  0  0  0  0  0  0  0  0  0  0
    6.9816   -1.5421    2.1809 C   0  0  0  0  0  0  0  0  0  0  0  0
    4.0719    5.3409   -1.6728 C   0  0  0  0  0  0  0  0  0  0  0  0
   -3.1137   -1.8769    2.8561 C   0  0  0  0  0  0  0  0  0  0  0  0
   -8.2320    0.2710    0.9876 C   0  0  0  0  0  0  0  0  0  0  0  0
    2.6223   -2.5844   -1.4859 H   0  0  0  0  0  0  0  0  0  0  0  0
   -0.0076    2.3271    1.1223 H   0  0  0  0  0  0  0  0  0  0  0  0
    2.5362   -0.0426    1.9539 H   0  0  0  0  0  0  0  0  0  0  0  0
    2.4803    0.9397   -2.0689 H   0  0  0  0  0  0  0  0  0  0  0  0
    3.5812    3.0620   -2.2147 H   0  0  0  0  0  0  0  0  0  0  0  0
    4.8276   -0.5344    2.4497 H   0  0  0  0  0  0  0  0  0  0  0  0
   -4.4397   -1.5225   -2.2489 H   0  0  0  0  0  0  0  0  0  0  0  0
   -5.2031    0.5686    2.1891 H   0  0  0  0  0  0  0  0  0  0  0  0
    4.1502   -3.0867   -2.9848 H   0  0  0  0  0  0  0  0  0  0  0  0
    3.6184   -4.4898   -1.9528 H   0  0  0  0  0  0  0  0  0  0  0  0
    5.1505   -4.5232   -2.8157 H   0  0  0  0  0  0  0  0  0  0  0  0
    0.2880    3.7056    2.8100 H   0  0  0  0  0  0  0  0  0  0  0  0
   -0.1849    5.3957    2.6955 H   0  0  0  0  0  0  0  0  0  0  0  0
   -0.9513    4.2576    1.5954 H   0  0  0  0  0  0  0  0  0  0  0  0
    7.0077   -0.4525    2.0710 H   0  0  0  0  0  0  0  0  0  0  0  0
    6.4790   -1.8567    3.1018 H   0  0  0  0  0  0  0  0  0  0  0  0
    4.9131    4.6682   -1.4735 H   0  0  0  0  0  0  0  0  0  0  0  0
    3.6745    5.2230   -2.6867 H   0  0  0  0  0  0  0  0  0  0  0  0
    4.4584    6.3629   -1.6001 H   0  0  0  0  0  0  0  0  0  0  0  0
    8.0210   -1.8787    2.2554 H   0  0  0  0  0  0  0  0  0  0  0  0
   -2.2975   -1.8567    3.5833 H   0  0  0  0  0  0  0  0  0  0  0  0
   -3.0597   -2.8162    2.2968 H   0  0  0  0  0  0  0  0  0  0  0  0
   -4.0644   -1.8150    3.3950 H   0  0  0  0  0  0  0  0  0  0  0  0
   -9.0883    0.9506    1.0099 H   0  0  0  0  0  0  0  0  0  0  0  0
   -8.0235   -0.0611    2.0095 H   0  0  0  0  0  0  0  0  0  0  0  0
   -8.4857   -0.5905    0.3622 H   0  0  0  0  0  0  0  0  0  0  0  0
  1 33  1  0  0  0  0
  2 15  2  0  0  0  0
  3 14  2  0  0  0  0
  4 24  1  0  0  0  0
  4 35  1  0  0  0  0
  5 25  1  0  0  0  0
  5 36  1  0  0  0  0
  6 18  2  0  0  0  0
  7 29  1  0  0  0  0
  7 38  1  0  0  0  0
  8 28  1  0  0  0  0
  8 37  1  0  0  0  0
  9 30  1  0  0  0  0
  9 39  1  0  0  0  0
 10 34  1  0  0  0  0
 10 40  1  0  0  0  0
 11 14  1  0  0  0  0
 11 15  1  0  0  0  0
 11 18  1  0  0  0  0
 12 13  2  0  0  0  0
 12 14  1  0  0  0  0
 12 16  1  0  0  0  0
 13 15  1  0  0  0  0
 13 17  1  0  0  0  0
 16 20  2  0  0  0  0
 16 21  1  0  0  0  0
 17 19  2  0  0  0  0
 17 22  1  0  0  0  0
 18 23  1  0  0  0  0
 19 25  1  0  0  0  0
 19 41  1  0  0  0  0
 20 24  1  0  0  0  0
 20 42  1  0  0  0  0
 21 26  2  0  0  0  0
 21 44  1  0  0  0  0
 22 27  2  0  0  0  0
 22 43  1  0  0  0  0
 23 30  1  0  0  0  0
 23 31  2  0  0  0  0
 24 29  2  0  0  0  0
 25 28  2  0  0  0  0
 26 29  1  0  0  0  0
 26 45  1  0  0  0  0
 27 28  1  0  0  0  0
 27 46  1  0  0  0  0
 30 32  2  0  0  0  0
 31 33  1  0  0  0  0
 31 47  1  0  0  0  0
 32 34  1  0  0  0  0
 32 48  1  0  0  0  0
 33 34  2  0  0  0  0
 35 52  1  0  0  0  0
 35 53  1  0  0  0  0
 35 54  1  0  0  0  0
 36 49  1  0  0  0  0
 36 50  1  0  0  0  0
 36 51  1  0  0  0  0
 37 55  1  0  0  0  0
 37 56  1  0  0  0  0
 37 60  1  0  0  0  0
 38 57  1  0  0  0  0
 38 58  1  0  0  0  0
 38 59  1  0  0  0  0
 39 61  1  0  0  0  0
 39 62  1  0  0  0  0
 39 63  1  0  0  0  0
 40 64  1  0  0  0  0
 40 65  1  0  0  0  0
 40 66  1  0  0  0  0
M  END
> <PUBCHEM_COMPOUND_CID>
122185090

> <PUBCHEM_CONFORMER_RMSD>
1.2

> <PUBCHEM_CONFORMER_DIVERSEORDER>
17
39
45
8
32
48
53
52
55
49
34
4
21
50
47
26
27
44
22
3
43
30
11
54
2
19
31
51
16
46
40
1
15
9
42
12
37
24
38
23
33
13
29
25
36
6
56
10
41
14
35
20
28
18
5
7

> <PUBCHEM_MMFF94_PARTIAL_CHARGES>
48
1 -0.11
10 -0.36
11 -0.18
12 -0.01
13 -0.01
14 0.62
15 0.62
16 0.03
17 0.03
18 0.54
19 -0.15
2 -0.57
20 -0.15
21 -0.15
22 -0.15
23 0.09
24 0.08
25 0.08
26 -0.15
27 -0.15
28 0.08
29 0.08
3 -0.57
30 0.08
31 -0.15
32 -0.15
33 0.11
34 0.08
35 0.28
36 0.28
37 0.28
38 0.28
39 0.28
4 -0.36
40 0.28
41 0.15
42 0.15
43 0.15
44 0.15
45 0.15
46 0.15
47 0.15
48 0.15
5 -0.36
6 -0.57
7 -0.36
8 -0.36
9 -0.36

> <PUBCHEM_EFFECTIVE_ROTOR_COUNT>
10.2

> <PUBCHEM_PHARMACOPHORE_FEATURES>
14
1 1 hydrophobe
1 10 acceptor
1 2 acceptor
1 3 acceptor
1 4 acceptor
1 5 acceptor
1 6 acceptor
1 7 acceptor
1 8 acceptor
1 9 acceptor
5 11 12 13 14 15 rings
6 16 20 21 24 26 29 rings
6 17 19 22 25 27 28 rings
6 23 30 31 32 33 34 rings

> <PUBCHEM_HEAVY_ATOM_COUNT>
40

> <PUBCHEM_ATOM_DEF_STEREO_COUNT>
0

> <PUBCHEM_ATOM_UDEF_STEREO_COUNT>
0

> <PUBCHEM_BOND_DEF_STEREO_COUNT>
0

> <PUBCHEM_BOND_UDEF_STEREO_COUNT>
0

> <PUBCHEM_ISOTOPIC_ATOM_COUNT>
0

> <PUBCHEM_COMPONENT_COUNT>
1

> <PUBCHEM_CACTVS_TAUTO_COUNT>
1

> <PUBCHEM_CONFORMER_ID>
0748658200000011

> <PUBCHEM_MMFF94_ENERGY>
178.7599

> <PUBCHEM_FEATURE_SELFOVERLAP>
71.069

> <PUBCHEM_SHAPE_FINGERPRINT>
10050765 1 18192153904951835591
102385 1 17975133454954618194
10675989 125 18193564587118911012
11331351 85 18130222632025579116
11456790 92 18188219702482357745
12166972 35 18060133228906615107
13140716 1 18261956361912454419
13383665 225 18270135500716004710
13383668 362 18195235835585225275
13540713 4 17823139093882014803
13540713 5 18196365042838581007
13617811 41 18339091380794576094
13757389 114 17331991338690033428
13782708 43 17749681770145181011
13878862 14 18263343911627818757
140371 6 18341337699422772174
14790565 3 17615411793556729884
14955137 171 18410017593713759450
15082195 135 18198889500456549239
15198563 99 18050018696904366700
15200665 1 17181926649671608288
15840311 113 17489306339623866643
17627616 140 18195815295303358673
1813 80 18411422770101597414
18365409 1 17764308345100508997
21133665 82 17760379082534764404
21927370 108 18189889826205790400
22311459 1 18336259059815263663
23559900 14 18343011216772074243
23569943 247 17910955747479389391
24771293 8 18201425987655635386
24771750 20 18191874641771772942
249057 25 17988636433438761975
3103668 31 17976544905582495581
3178227 256 18261395520840638659
394071 54 18412259549963296018
4015057 19 18410851092979943259
508180 173 18264755581404749365
5104073 3 18188775071649663627
5265222 85 16154294765517206027
57724786 102 18334579083673599949
6004065 56 18340759412136043967
6086070 43 18200035182544575805
613672 6 18336554819853207714
6371380 46 17603857880669167467
9962374 69 18337098056170282887
9981440 41 17476625950834579947

> <PUBCHEM_SHAPE_MULTIPOLES>
771.32
16.57
6.33
2.13
19.94
9.95
-0.43
-7.81
-0.82
-12.39
1.37
0.35
-0.22
-1.27

> <PUBCHEM_SHAPE_SELFOVERLAP>
1672.777

> <PUBCHEM_SHAPE_VOLUME>
434.7

> <PUBCHEM_COORDINATE_TYPE>
2
5
10

$$$$