187
 OpenBabel03292022033D

 96 98  0  0  1  0  0  0  0  0999 V2000
    3.6685    1.6779   -6.0075 C   0  0  0  0  0  0  0  0  0  0  0  0
    4.1333    0.2539   -6.3289 C   0  0  0  0  0  0  0  0  0  0  0  0
    2.9978   -0.5447   -6.9804 C   0  0  0  0  0  0  0  0  0  0  0  0
    5.3044    0.3428   -7.3193 C   0  0  0  0  0  0  0  0  0  0  0  0
    4.6927   -0.3933   -5.1449 O   0  0  0  0  0  0  0  0  0  0  0  0
    3.8959   -0.8073   -4.1215 C   0  0  0  0  0  0  0  0  0  0  0  0
    2.6659   -0.7401   -4.1306 O   0  0  0  0  0  0  0  0  0  0  0  0
    4.6844   -1.3339   -2.8845 C   0  0  2  0  0  0  0  0  0  0  0  0
    4.1814   -0.6191   -1.6050 C   0  0  0  0  0  0  0  0  0  0  0  0
    4.6518    0.8301   -1.3810 C   0  0  0  0  0  0  0  0  0  0  0  0
    4.1138    1.8183   -2.4138 C   0  0  0  0  0  0  0  0  0  0  0  0
    4.5134    3.2598   -2.1200 C   0  0  0  0  0  0  0  0  0  0  0  0
    4.0186    4.1600   -3.1418 N   0  0  0  0  0  0  0  0  0  0  0  0
    4.7751    4.5841   -4.1924 C   0  0  0  0  0  0  0  0  0  0  0  0
    5.9324    4.2412   -4.4026 O   0  0  0  0  0  0  0  0  0  0  0  0
    4.0686    5.4668   -4.9366 O   0  0  0  0  0  0  0  0  0  0  0  0
    4.8321    6.2173   -5.8883 C   0  0  0  0  0  0  0  0  0  0  0  0
    4.3824    5.9554   -7.3035 C   0  0  0  0  0  0  0  0  0  0  0  0
    3.3935    6.7526   -7.9001 C   0  0  0  0  0  0  0  0  0  0  0  0
    3.0406    6.5628   -9.2378 C   0  0  0  0  0  0  0  0  0  0  0  0
    3.6631    5.5682   -9.9899 C   0  0  0  0  0  0  0  0  0  0  0  0
    4.6279    4.7522   -9.4004 C   0  0  0  0  0  0  0  0  0  0  0  0
    4.9821    4.9410   -8.0624 C   0  0  0  0  0  0  0  0  0  0  0  0
    6.1553   -1.2904   -3.0656 N   0  0  0  0  0  0  0  0  0  0  0  0
    6.9385   -1.9028   -1.9704 C   0  0  0  0  0  0  0  0  0  0  0  0
    8.4580   -1.7020   -2.1933 C   0  0  2  0  0  0  0  0  0  0  0  0
    8.9094   -2.2832   -3.5453 C   0  0  0  0  0  0  0  0  0  0  0  0
   10.4315   -2.2638   -3.4421 C   0  0  1  0  0  0  0  0  0  0  0  0
   10.8735   -0.9511   -3.7878 O   0  0  0  0  0  0  0  0  0  0  0  0
   12.2907   -0.8639   -3.9329 C   0  0  0  0  0  0  0  0  0  0  0  0
   12.6774    0.5279   -4.3587 C   0  0  0  0  0  0  0  0  0  0  0  0
   13.8616    1.1047   -3.8746 C   0  0  0  0  0  0  0  0  0  0  0  0
   14.2481    2.3790   -4.2830 C   0  0  0  0  0  0  0  0  0  0  0  0
   13.4637    3.0904   -5.1901 C   0  0  0  0  0  0  0  0  0  0  0  0
   12.2928    2.5231   -5.6895 C   0  0  0  0  0  0  0  0  0  0  0  0
   11.9038    1.2470   -5.2807 C   0  0  0  0  0  0  0  0  0  0  0  0
   10.6781   -2.5938   -1.9694 C   0  0  0  0  0  0  0  0  0  0  0  0
    9.4218   -2.3296   -1.2748 N   0  0  0  0  0  0  0  0  0  0  0  0
    9.3710   -2.6389    0.0585 C   0  0  0  0  0  0  0  0  0  0  0  0
   10.3063   -3.1815    0.6300 O   0  0  0  0  0  0  0  0  0  0  0  0
    8.1691   -2.3869    0.6363 O   0  0  0  0  0  0  0  0  0  0  0  0
    7.7296   -3.2531    1.7154 C   0  0  0  0  0  0  0  0  0  0  0  0
    8.6849   -3.3817    2.9134 C   0  0  0  0  0  0  0  0  0  0  0  0
    6.4235   -2.6257    2.2255 C   0  0  0  0  0  0  0  0  0  0  0  0
    7.4240   -4.6312    1.1102 C   0  0  0  0  0  0  0  0  0  0  0  0
    3.2139    2.1621   -6.8787 H   0  0  0  0  0  0  0  0  0  0  0  0
    4.5172    2.2892   -5.6891 H   0  0  0  0  0  0  0  0  0  0  0  0
    2.9374    1.6945   -5.1939 H   0  0  0  0  0  0  0  0  0  0  0  0
    2.8541   -0.2483   -8.0276 H   0  0  0  0  0  0  0  0  0  0  0  0
    2.0398   -0.3638   -6.4794 H   0  0  0  0  0  0  0  0  0  0  0  0
    3.1893   -1.6205   -6.9444 H   0  0  0  0  0  0  0  0  0  0  0  0
    5.0204    0.8675   -8.2385 H   0  0  0  0  0  0  0  0  0  0  0  0
    5.6645   -0.6567   -7.5860 H   0  0  0  0  0  0  0  0  0  0  0  0
    6.1541    0.8721   -6.8716 H   0  0  0  0  0  0  0  0  0  0  0  0
    4.4027   -2.3935   -2.8219 H   0  0  0  0  0  0  0  0  0  0  0  0
    3.0836   -0.6339   -1.5859 H   0  0  0  0  0  0  0  0  0  0  0  0
    4.4886   -1.2090   -0.7324 H   0  0  0  0  0  0  0  0  0  0  0  0
    5.7464    0.8749   -1.3614 H   0  0  0  0  0  0  0  0  0  0  0  0
    4.3149    1.1421   -0.3846 H   0  0  0  0  0  0  0  0  0  0  0  0
    3.0207    1.7435   -2.4692 H   0  0  0  0  0  0  0  0  0  0  0  0
    4.5125    1.5611   -3.3946 H   0  0  0  0  0  0  0  0  0  0  0  0
    5.6046    3.3417   -2.0657 H   0  0  0  0  0  0  0  0  0  0  0  0
    4.0968    3.5905   -1.1640 H   0  0  0  0  0  0  0  0  0  0  0  0
    3.0701    4.5080   -3.1032 H   0  0  0  0  0  0  0  0  0  0  0  0
    5.9140    6.0575   -5.8056 H   0  0  0  0  0  0  0  0  0  0  0  0
    4.6765    7.2769   -5.6521 H   0  0  0  0  0  0  0  0  0  0  0  0
    2.9071    7.5421   -7.3310 H   0  0  0  0  0  0  0  0  0  0  0  0
    2.2886    7.1991   -9.6973 H   0  0  0  0  0  0  0  0  0  0  0  0
    3.3979    5.4302  -11.0348 H   0  0  0  0  0  0  0  0  0  0  0  0
    5.1150    3.9782   -9.9876 H   0  0  0  0  0  0  0  0  0  0  0  0
    5.7472    4.3066   -7.6185 H   0  0  0  0  0  0  0  0  0  0  0  0
    6.4490   -0.3249   -3.2230 H   0  0  0  0  0  0  0  0  0  0  0  0
    6.7077   -2.9723   -1.9047 H   0  0  0  0  0  0  0  0  0  0  0  0
    6.6706   -1.4394   -1.0183 H   0  0  0  0  0  0  0  0  0  0  0  0
    8.6755   -0.6283   -2.1594 H   0  0  0  0  0  0  0  0  0  0  0  0
    8.5348   -1.7045   -4.3932 H   0  0  0  0  0  0  0  0  0  0  0  0
    8.5631   -3.3221   -3.6386 H   0  0  0  0  0  0  0  0  0  0  0  0
   10.8872   -2.9980   -4.1142 H   0  0  0  0  0  0  0  0  0  0  0  0
   12.6389   -1.5786   -4.6865 H   0  0  0  0  0  0  0  0  0  0  0  0
   12.7671   -1.0972   -2.9748 H   0  0  0  0  0  0  0  0  0  0  0  0
   14.4865    0.5629   -3.1667 H   0  0  0  0  0  0  0  0  0  0  0  0
   15.1627    2.8203   -3.8932 H   0  0  0  0  0  0  0  0  0  0  0  0
   13.7631    4.0842   -5.5049 H   0  0  0  0  0  0  0  0  0  0  0  0
   11.6778    3.0760   -6.3952 H   0  0  0  0  0  0  0  0  0  0  0  0
   10.9861    0.8173   -5.6761 H   0  0  0  0  0  0  0  0  0  0  0  0
   11.4512   -1.9744   -1.5046 H   0  0  0  0  0  0  0  0  0  0  0  0
   10.9371   -3.6478   -1.8311 H   0  0  0  0  0  0  0  0  0  0  0  0
    8.9806   -2.3990    3.2947 H   0  0  0  0  0  0  0  0  0  0  0  0
    9.6032   -3.9248    2.6713 H   0  0  0  0  0  0  0  0  0  0  0  0
    8.2135   -3.9424    3.7311 H   0  0  0  0  0  0  0  0  0  0  0  0
    6.6294   -1.6855    2.7510 H   0  0  0  0  0  0  0  0  0  0  0  0
    5.8965   -3.2928    2.9167 H   0  0  0  0  0  0  0  0  0  0  0  0
    5.7547   -2.3794    1.3957 H   0  0  0  0  0  0  0  0  0  0  0  0
    8.3335   -5.1014    0.7184 H   0  0  0  0  0  0  0  0  0  0  0  0
    6.7378   -4.5330    0.2613 H   0  0  0  0  0  0  0  0  0  0  0  0
    6.9800   -5.3114    1.8432 H   0  0  0  0  0  0  0  0  0  0  0  0
  1  2  1  0  0  0  0
  1 46  1  0  0  0  0
  1 47  1  0  0  0  0
  1 48  1  0  0  0  0
  2  3  1  0  0  0  0
  2  4  1  0  0  0  0
  2  5  1  0  0  0  0
  3 49  1  0  0  0  0
  3 50  1  0  0  0  0
  3 51  1  0  0  0  0
  4 52  1  0  0  0  0
  4 53  1  0  0  0  0
  4 54  1  0  0  0  0
  5  6  1  0  0  0  0
  6  7  2  0  0  0  0
  8 24  1  0  0  0  0
  8  9  1  0  0  0  0
  8  6  1  0  0  0  0
  8 55  1  1  0  0  0
  9 10  1  0  0  0  0
  9 56  1  0  0  0  0
  9 57  1  0  0  0  0
 10 11  1  0  0  0  0
 10 58  1  0  0  0  0
 10 59  1  0  0  0  0
 11 12  1  0  0  0  0
 11 60  1  0  0  0  0
 11 61  1  0  0  0  0
 12 13  1  0  0  0  0
 12 62  1  0  0  0  0
 12 63  1  0  0  0  0
 13 14  1  0  0  0  0
 13 64  1  0  0  0  0
 14 15  2  0  0  0  0
 14 16  1  0  0  0  0
 16 17  1  0  0  0  0
 17 18  1  0  0  0  0
 17 65  1  0  0  0  0
 17 66  1  0  0  0  0
 18 19  1  0  0  0  0
 18 23  2  0  0  0  0
 19 20  2  0  0  0  0
 19 67  1  0  0  0  0
 20 21  1  0  0  0  0
 20 68  1  0  0  0  0
 21 22  2  0  0  0  0
 21 69  1  0  0  0  0
 22 23  1  0  0  0  0
 22 70  1  0  0  0  0
 23 71  1  0  0  0  0
 24 25  1  0  0  0  0
 24 72  1  0  0  0  0
 25 26  1  0  0  0  0
 25 73  1  0  0  0  0
 25 74  1  0  0  0  0
 26 27  1  0  0  0  0
 26 38  1  0  0  0  0
 26 75  1  6  0  0  0
 27 28  1  0  0  0  0
 27 76  1  0  0  0  0
 27 77  1  0  0  0  0
 28 29  1  0  0  0  0
 28 37  1  0  0  0  0
 28 78  1  6  0  0  0
 29 30  1  0  0  0  0
 30 31  1  0  0  0  0
 30 79  1  0  0  0  0
 30 80  1  0  0  0  0
 31 32  1  0  0  0  0
 31 36  2  0  0  0  0
 32 33  2  0  0  0  0
 32 81  1  0  0  0  0
 33 34  1  0  0  0  0
 33 82  1  0  0  0  0
 34 35  2  0  0  0  0
 34 83  1  0  0  0  0
 35 36  1  0  0  0  0
 35 84  1  0  0  0  0
 36 85  1  0  0  0  0
 37 38  1  0  0  0  0
 37 86  1  0  0  0  0
 37 87  1  0  0  0  0
 38 39  1  0  0  0  0
 39 40  2  0  0  0  0
 39 41  1  0  0  0  0
 41 42  1  0  0  0  0
 42 43  1  0  0  0  0
 42 44  1  0  0  0  0
 42 45  1  0  0  0  0
 43 88  1  0  0  0  0
 43 89  1  0  0  0  0
 43 90  1  0  0  0  0
 44 91  1  0  0  0  0
 44 92  1  0  0  0  0
 44 93  1  0  0  0  0
 45 94  1  0  0  0  0
 45 95  1  0  0  0  0
 45 96  1  0  0  0  0
M  END
>  <Energy>
41.8389

$$$$