71524817
  -OEChem-03242010103D

 44 47  0     0  0  0  0  0  0999 V2000
    4.9731   -0.4080   -1.3151 O   0  0  0  0  0  0  0  0  0  0  0  0
    0.1391    1.4067    0.7912 N   0  0  0  0  0  0  0  0  0  0  0  0
   -3.2421   -1.5202   -0.5575 N   0  0  0  0  0  0  0  0  0  0  0  0
   -1.8979    2.2601   -0.0974 N   0  0  0  0  0  0  0  0  0  0  0  0
   -3.7207    0.8237   -0.8286 N   0  0  0  0  0  0  0  0  0  0  0  0
   -3.8801    3.1527   -0.9643 N   0  0  0  0  0  0  0  0  0  0  0  0
   -1.6472   -0.0958    0.0778 C   0  0  0  0  0  0  0  0  0  0  0  0
   -1.1843   -1.4239    0.3127 C   0  0  0  0  0  0  0  0  0  0  0  0
   -1.1433    1.1935    0.2537 C   0  0  0  0  0  0  0  0  0  0  0  0
   -2.9228   -0.1938   -0.4605 C   0  0  0  0  0  0  0  0  0  0  0  0
   -2.2013   -2.2935   -0.0931 C   0  0  0  0  0  0  0  0  0  0  0  0
    0.2153    2.4087    1.8684 C   0  0  0  0  0  0  0  0  0  0  0  0
    1.3754    0.9440    0.2525 C   0  0  0  0  0  0  0  0  0  0  0  0
    0.0058   -1.9729    0.8332 C   0  0  0  0  0  0  0  0  0  0  0  0
   -2.0848   -3.6853   -0.0032 C   0  0  0  0  0  0  0  0  0  0  0  0
   -3.1236    2.0124   -0.6101 C   0  0  0  0  0  0  0  0  0  0  0  0
    0.1350   -3.3630    0.9287 C   0  0  0  0  0  0  0  0  0  0  0  0
    0.9455    3.6452    1.3809 C   0  0  0  0  0  0  0  0  0  0  0  0
   -0.8958   -4.2043    0.5165 C   0  0  0  0  0  0  0  0  0  0  0  0
    1.5169    0.7760   -1.1249 C   0  0  0  0  0  0  0  0  0  0  0  0
    2.4432    0.6580    1.1032 C   0  0  0  0  0  0  0  0  0  0  0  0
    2.7257    0.3218   -1.6518 C   0  0  0  0  0  0  0  0  0  0  0  0
    3.6522    0.2037    0.5765 C   0  0  0  0  0  0  0  0  0  0  0  0
    3.7935    0.0356   -0.8009 C   0  0  0  0  0  0  0  0  0  0  0  0
    6.0230   -0.6816   -0.3882 C   0  0  0  0  0  0  0  0  0  0  0  0
   -4.1148   -1.8808   -0.9173 H   0  0  0  0  0  0  0  0  0  0  0  0
   -0.7862    2.6981    2.2140 H   0  0  0  0  0  0  0  0  0  0  0  0
    0.7087    1.9977    2.7562 H   0  0  0  0  0  0  0  0  0  0  0  0
    0.8098   -1.3667    1.2190 H   0  0  0  0  0  0  0  0  0  0  0  0
   -2.8869   -4.3419   -0.3235 H   0  0  0  0  0  0  0  0  0  0  0  0
    1.0454   -3.7896    1.3415 H   0  0  0  0  0  0  0  0  0  0  0  0
    2.0018    3.4569    1.1681 H   0  0  0  0  0  0  0  0  0  0  0  0
    0.9062    4.4256    2.1483 H   0  0  0  0  0  0  0  0  0  0  0  0
    0.4854    4.0477    0.4720 H   0  0  0  0  0  0  0  0  0  0  0  0
   -0.7759   -5.2813    0.6022 H   0  0  0  0  0  0  0  0  0  0  0  0
    0.7037    1.0014   -1.8098 H   0  0  0  0  0  0  0  0  0  0  0  0
    2.3623    0.7547    2.1815 H   0  0  0  0  0  0  0  0  0  0  0  0
    2.8307    0.1946   -2.7258 H   0  0  0  0  0  0  0  0  0  0  0  0
    4.4385   -0.0049    1.2940 H   0  0  0  0  0  0  0  0  0  0  0  0
   -4.8053    3.0337   -1.3532 H   0  0  0  0  0  0  0  0  0  0  0  0
   -3.4864    4.0729   -0.8240 H   0  0  0  0  0  0  0  0  0  0  0  0
    6.8862   -1.0227   -0.9692 H   0  0  0  0  0  0  0  0  0  0  0  0
    5.7553   -1.4954    0.2942 H   0  0  0  0  0  0  0  0  0  0  0  0
    6.3343    0.2227    0.1457 H   0  0  0  0  0  0  0  0  0  0  0  0
  1 24  1  0  0  0  0
  1 25  1  0  0  0  0
  2  9  1  0  0  0  0
  2 12  1  0  0  0  0
  2 13  1  0  0  0  0
  3 10  1  0  0  0  0
  3 11  1  0  0  0  0
  3 26  1  0  0  0  0
  4  9  2  0  0  0  0
  4 16  1  0  0  0  0
  5 10  1  0  0  0  0
  5 16  2  0  0  0  0
  6 16  1  0  0  0  0
  6 40  1  0  0  0  0
  6 41  1  0  0  0  0
  7  8  1  0  0  0  0
  7  9  1  0  0  0  0
  7 10  2  0  0  0  0
  8 11  1  0  0  0  0
  8 14  2  0  0  0  0
 11 15  2  0  0  0  0
 12 18  1  0  0  0  0
 12 27  1  0  0  0  0
 12 28  1  0  0  0  0
 13 20  2  0  0  0  0
 13 21  1  0  0  0  0
 14 17  1  0  0  0  0
 14 29  1  0  0  0  0
 15 19  1  0  0  0  0
 15 30  1  0  0  0  0
 17 19  2  0  0  0  0
 17 31  1  0  0  0  0
 18 32  1  0  0  0  0
 18 33  1  0  0  0  0
 18 34  1  0  0  0  0
 19 35  1  0  0  0  0
 20 22  1  0  0  0  0
 20 36  1  0  0  0  0
 21 23  2  0  0  0  0
 21 37  1  0  0  0  0
 22 24  2  0  0  0  0
 22 38  1  0  0  0  0
 23 24  1  0  0  0  0
 23 39  1  0  0  0  0
 25 42  1  0  0  0  0
 25 43  1  0  0  0  0
 25 44  1  0  0  0  0
M  END
> <PUBCHEM_COMPOUND_CID>
71524817

> <PUBCHEM_CONFORMER_RMSD>
0.8

> <PUBCHEM_CONFORMER_DIVERSEORDER>
1
6
7
3
8
2
4
5

> <PUBCHEM_MMFF94_PARTIAL_CHARGES>
33
1 -0.36
10 0.11
11 -0.15
12 0.37
13 0.1
14 -0.15
15 -0.15
16 0.72
17 -0.15
19 -0.15
2 -0.57
20 -0.15
21 -0.15
22 -0.15
23 -0.15
24 0.08
25 0.28
26 0.27
29 0.15
3 0.03
30 0.15
31 0.15
35 0.15
36 0.15
37 0.15
38 0.15
39 0.15
4 -0.62
40 0.4
41 0.4
5 -0.57
6 -0.9
9 0.41

> <PUBCHEM_EFFECTIVE_ROTOR_COUNT>
4

> <PUBCHEM_PHARMACOPHORE_FEATURES>
9
1 1 acceptor
1 3 cation
1 3 donor
1 6 donor
4 4 5 6 16 cation
5 3 7 8 10 11 rings
6 13 20 21 22 23 24 rings
6 4 5 7 9 10 16 rings
6 8 11 14 15 17 19 rings

> <PUBCHEM_HEAVY_ATOM_COUNT>
25

> <PUBCHEM_ATOM_DEF_STEREO_COUNT>
0

> <PUBCHEM_ATOM_UDEF_STEREO_COUNT>
0

> <PUBCHEM_BOND_DEF_STEREO_COUNT>
0

> <PUBCHEM_BOND_UDEF_STEREO_COUNT>
0

> <PUBCHEM_ISOTOPIC_ATOM_COUNT>
0

> <PUBCHEM_COMPONENT_COUNT>
1

> <PUBCHEM_CACTVS_TAUTO_COUNT>
9

> <PUBCHEM_CONFORMER_ID>
044361D100000001

> <PUBCHEM_MMFF94_ENERGY>
97.0229

> <PUBCHEM_FEATURE_SELFOVERLAP>
45.877

> <PUBCHEM_SHAPE_FINGERPRINT>
10165383 225 18263083215460507125
10693767 8 17697577133844252063
107951 10 18338802212866559711
10906281 52 17774460307968972128
11582403 64 16477897525992875713
12035759 4 17764874593381915539
12293681 160 18057318383996483792
12363563 72 17845950622746757638
12403259 226 18053947526211559930
12553582 1 17181091553584431915
12712778 12 18337375120320991322
13140716 1 18050848016244776323
13149001 5 18343013432352830225
133893 2 17106527674024498136
13941206 138 18114187389223304370
14223421 5 17764584713259864256
14251740 79 18268724831012468166
14251757 5 18337403728886847638
14713325 29 17895487959532055993
14790565 3 18052826848974556081
14866123 147 18340216262446178595
15422964 175 17402327569511409943
15463212 79 17967533493286031244
15664445 248 17038115472445044357
16752209 62 18335133219641882467
167882 2 17757267081383219613
19591789 44 18337106882480887827
20600515 1 18341344318257883292
20642791 178 17902503788362347147
20645476 183 18113902645353753895
20775438 99 17264093634678592023
20905425 154 18340484482900417703
21781051 124 18040996293650455259
22182313 1 17688860252745010443
23184049 29 18049150374079743275
23419403 2 17417240082415045410
23526113 38 17916294103505001472
23559900 14 18342736326296512168
2748010 2 17762329615190954939
5265222 85 18335151903413992364
5283173 99 18409728495866417508
58260988 521 18045816470836981155
6287921 2 7850989601052127310
70634741 139 18337969973639179254
7226269 152 18342740668160210768
81228 2 17759241082912841771
9709674 26 18125996302802376880

> <PUBCHEM_SHAPE_MULTIPOLES>
483.71
7.69
4.67
1.34
9.46
1.92
-0.08
0.3
3.51
-4.4
-1.53
0.76
-0.64
1.3

> <PUBCHEM_SHAPE_SELFOVERLAP>
1074.971

> <PUBCHEM_SHAPE_VOLUME>
258.3

> <PUBCHEM_COORDINATE_TYPE>
2
5
10

$$$$