44451912
  -OEChem-03242010103D

 56 60  0     1  0  0  0  0  0999 V2000
   -3.2428    2.3295    0.0379 O   0  0  0  0  0  0  0  0  0  0  0  0
    5.0965   -0.0596   -0.2432 N   0  0  2  0  0  0  0  0  0  0  0  0
   -2.7440    0.0839   -0.4494 N   0  0  0  0  0  0  0  0  0  0  0  0
   -7.3245    1.5461   -0.1181 N   0  0  0  0  0  0  0  0  0  0  0  0
    5.5679   -1.3259   -0.8172 C   0  0  0  0  0  0  0  0  0  0  0  0
    5.8104    0.2266    1.0139 C   0  0  0  0  0  0  0  0  0  0  0  0
    7.0327   -1.1893   -1.2454 C   0  0  0  0  0  0  0  0  0  0  0  0
    3.6532   -0.0996   -0.0117 C   0  0  0  0  0  0  0  0  0  0  0  0
    7.3139    0.1462    0.8794 C   0  0  0  0  0  0  0  0  0  0  0  0
    7.8985   -0.5708   -0.1788 C   0  0  0  0  0  0  0  0  0  0  0  0
    2.8831    0.1462   -1.3095 C   0  0  0  0  0  0  0  0  0  0  0  0
    8.1347    0.7352    1.8508 C   0  0  0  0  0  0  0  0  0  0  0  0
    9.2936   -0.6566   -0.2708 C   0  0  0  0  0  0  0  0  0  0  0  0
    1.3927    0.1295   -1.0806 C   0  0  0  0  0  0  0  0  0  0  0  0
    9.5225    0.6361    1.7559 C   0  0  0  0  0  0  0  0  0  0  0  0
   10.1014   -0.0570    0.6950 C   0  0  0  0  0  0  0  0  0  0  0  0
    0.6837   -1.0669   -1.1895 C   0  0  0  0  0  0  0  0  0  0  0  0
    0.7228    1.3105   -0.7610 C   0  0  0  0  0  0  0  0  0  0  0  0
   -0.6950   -1.0822   -0.9792 C   0  0  0  0  0  0  0  0  0  0  0  0
   -0.6560    1.2953   -0.5507 C   0  0  0  0  0  0  0  0  0  0  0  0
   -1.3649    0.0990   -0.6599 C   0  0  0  0  0  0  0  0  0  0  0  0
   -3.5788    1.1612   -0.1236 C   0  0  0  0  0  0  0  0  0  0  0  0
   -5.0221    0.8314    0.0092 C   0  0  0  0  0  0  0  0  0  0  0  0
   -6.8067   -0.7277    0.4888 C   0  0  0  0  0  0  0  0  0  0  0  0
   -5.4399   -0.4416    0.3699 C   0  0  0  0  0  0  0  0  0  0  0  0
   -7.7270    0.3099    0.2323 C   0  0  0  0  0  0  0  0  0  0  0  0
   -5.9964    1.7811   -0.2220 C   0  0  0  0  0  0  0  0  0  0  0  0
   -7.2620   -2.0065    0.8522 C   0  0  0  0  0  0  0  0  0  0  0  0
   -9.0845    0.0252    0.3506 C   0  0  0  0  0  0  0  0  0  0  0  0
   -8.6254   -2.2634    0.9628 C   0  0  0  0  0  0  0  0  0  0  0  0
   -9.5376   -1.2460    0.7119 C   0  0  0  0  0  0  0  0  0  0  0  0
    4.9935   -1.6125   -1.7044 H   0  0  0  0  0  0  0  0  0  0  0  0
    5.4636   -2.1440   -0.0912 H   0  0  0  0  0  0  0  0  0  0  0  0
    5.5038   -0.4740    1.8024 H   0  0  0  0  0  0  0  0  0  0  0  0
    5.5490    1.2413    1.3394 H   0  0  0  0  0  0  0  0  0  0  0  0
    7.4180   -2.1822   -1.5065 H   0  0  0  0  0  0  0  0  0  0  0  0
    7.0944   -0.5594   -2.1421 H   0  0  0  0  0  0  0  0  0  0  0  0
    3.3477   -1.0431    0.4606 H   0  0  0  0  0  0  0  0  0  0  0  0
    3.3704    0.6963    0.6914 H   0  0  0  0  0  0  0  0  0  0  0  0
    3.1724    1.1127   -1.7437 H   0  0  0  0  0  0  0  0  0  0  0  0
    3.1236   -0.6032   -2.0724 H   0  0  0  0  0  0  0  0  0  0  0  0
    7.6957    1.2740    2.6867 H   0  0  0  0  0  0  0  0  0  0  0  0
    9.7574   -1.1910   -1.0960 H   0  0  0  0  0  0  0  0  0  0  0  0
   10.1523    1.0990    2.5101 H   0  0  0  0  0  0  0  0  0  0  0  0
   11.1824   -0.1305    0.6200 H   0  0  0  0  0  0  0  0  0  0  0  0
    1.1950   -1.9937   -1.4359 H   0  0  0  0  0  0  0  0  0  0  0  0
    1.2657    2.2479   -0.6720 H   0  0  0  0  0  0  0  0  0  0  0  0
   -1.2345   -2.0219   -1.0669 H   0  0  0  0  0  0  0  0  0  0  0  0
   -1.1012    2.2494   -0.3070 H   0  0  0  0  0  0  0  0  0  0  0  0
   -3.1719   -0.8263   -0.5935 H   0  0  0  0  0  0  0  0  0  0  0  0
   -4.7261   -1.2285    0.6004 H   0  0  0  0  0  0  0  0  0  0  0  0
   -5.7471    2.7971   -0.5123 H   0  0  0  0  0  0  0  0  0  0  0  0
   -6.5568   -2.8106    1.0510 H   0  0  0  0  0  0  0  0  0  0  0  0
   -9.8194    0.8049    0.1592 H   0  0  0  0  0  0  0  0  0  0  0  0
   -8.9736   -3.2526    1.2437 H   0  0  0  0  0  0  0  0  0  0  0  0
  -10.6033   -1.4375    0.7961 H   0  0  0  0  0  0  0  0  0  0  0  0
  1 22  2  0  0  0  0
  2  5  1  0  0  0  0
  2  6  1  0  0  0  0
  2  8  1  0  0  0  0
  3 21  1  0  0  0  0
  3 22  1  0  0  0  0
  3 50  1  0  0  0  0
  4 26  1  0  0  0  0
  4 27  2  0  0  0  0
  5  7  1  0  0  0  0
  5 32  1  0  0  0  0
  5 33  1  0  0  0  0
  6  9  1  0  0  0  0
  6 34  1  0  0  0  0
  6 35  1  0  0  0  0
  7 10  1  0  0  0  0
  7 36  1  0  0  0  0
  7 37  1  0  0  0  0
  8 11  1  0  0  0  0
  8 38  1  0  0  0  0
  8 39  1  0  0  0  0
  9 10  1  0  0  0  0
  9 12  2  0  0  0  0
 10 13  2  0  0  0  0
 11 14  1  0  0  0  0
 11 40  1  0  0  0  0
 11 41  1  0  0  0  0
 12 15  1  0  0  0  0
 12 42  1  0  0  0  0
 13 16  1  0  0  0  0
 13 43  1  0  0  0  0
 14 17  2  0  0  0  0
 14 18  1  0  0  0  0
 15 16  2  0  0  0  0
 15 44  1  0  0  0  0
 16 45  1  0  0  0  0
 17 19  1  0  0  0  0
 17 46  1  0  0  0  0
 18 20  2  0  0  0  0
 18 47  1  0  0  0  0
 19 21  2  0  0  0  0
 19 48  1  0  0  0  0
 20 21  1  0  0  0  0
 20 49  1  0  0  0  0
 22 23  1  0  0  0  0
 23 25  2  0  0  0  0
 23 27  1  0  0  0  0
 24 25  1  0  0  0  0
 24 26  1  0  0  0  0
 24 28  2  0  0  0  0
 25 51  1  0  0  0  0
 26 29  2  0  0  0  0
 27 52  1  0  0  0  0
 28 30  1  0  0  0  0
 28 53  1  0  0  0  0
 29 31  1  0  0  0  0
 29 54  1  0  0  0  0
 30 31  2  0  0  0  0
 30 55  1  0  0  0  0
 31 56  1  0  0  0  0
M  END
> <PUBCHEM_COMPOUND_CID>
44451912

> <PUBCHEM_CONFORMER_RMSD>
0.8

> <PUBCHEM_CONFORMER_DIVERSEORDER>
4
27
42
124
142
118
70
151
104
31
141
93
56
2
58
82
73
67
139
148
29
101
86
154
149
140
34
71
75
116
135
12
84
5
98
37
107
35
133
22
36
89
112
108
123
105
126
13
20
8
144
94
61
74
125
127
32
55
17
150
21
92
109
48
83
54
146
145
110
10
59
153
99
81
49
68
30
131
46
7
18
14
102
88
103
85
136
51
64
1
28
6
147
97
130
57
16
80
38
114
11
65
60
155
3
113
15
119
62
33
66
134
53
115
128
100
25
19
52
79
91
138
90
95
129
120
77
111
63
26
9
24
78
152
143
106
44
41
87
122
117
72
132
45
69
96
121
76
39
50
23
40
47
43
137

> <PUBCHEM_MMFF94_PARTIAL_CHARGES>
45
1 -0.57
10 -0.14
11 0.14
12 -0.15
13 -0.15
14 -0.14
15 -0.15
16 -0.15
17 -0.15
18 -0.15
19 -0.15
2 -0.81
20 -0.15
21 0.12
22 0.54
23 0.09
25 -0.15
26 0.31
27 0.16
28 -0.15
29 -0.15
3 -0.55
30 -0.15
31 -0.15
4 -0.62
42 0.15
43 0.15
44 0.15
45 0.15
46 0.15
47 0.15
48 0.15
49 0.15
5 0.27
50 0.37
51 0.15
52 0.15
53 0.15
54 0.15
55 0.15
56 0.15
6 0.41
7 0.14
8 0.27
9 -0.14

> <PUBCHEM_EFFECTIVE_ROTOR_COUNT>
6.8

> <PUBCHEM_PHARMACOPHORE_FEATURES>
9
1 1 acceptor
1 2 cation
1 3 donor
1 4 acceptor
6 14 17 18 19 20 21 rings
6 2 5 6 7 9 10 rings
6 24 26 28 29 30 31 rings
6 4 23 24 25 26 27 rings
6 9 10 12 13 15 16 rings

> <PUBCHEM_HEAVY_ATOM_COUNT>
31

> <PUBCHEM_ATOM_DEF_STEREO_COUNT>
0

> <PUBCHEM_ATOM_UDEF_STEREO_COUNT>
0

> <PUBCHEM_BOND_DEF_STEREO_COUNT>
0

> <PUBCHEM_BOND_UDEF_STEREO_COUNT>
0

> <PUBCHEM_ISOTOPIC_ATOM_COUNT>
0

> <PUBCHEM_COMPONENT_COUNT>
1

> <PUBCHEM_CACTVS_TAUTO_COUNT>
2

> <PUBCHEM_CONFORMER_ID>
02A6484800000004

> <PUBCHEM_MMFF94_ENERGY>
93.9668

> <PUBCHEM_FEATURE_SELFOVERLAP>
45.726

> <PUBCHEM_SHAPE_FINGERPRINT>
10 15 18059855060395111918
10162869 55 16153428359829694982
10299344 5 16660364775125436068
10533779 47 17846223220454147366
106641 1 18342457049651746084
10666366 153 7781517018885287374
10883706 142 16056882433215272869
11135609 99 17895482543668408171
11181472 205 12679192609125623790
11408170 108 16009023939063957522
11410812 94 16878210997738255695
11411753 3 17842852031086201037
11534866 41 18260263028860864050
11672396 167 12035989276682613496
11966995 178 18272377521106428500
12013929 94 18261116291662195474
12089408 11 17167866348610411116
12539745 222 17604141545573265069
12741549 16 18187365429039975765
13383668 362 18267864080801212144
13740195 50 18343298184389055170
13974486 27 17689437088429109067
13974486 7 17977105984212960299
14117953 113 9007056881656295378
14150022 121 18342459184283284169
14251764 46 18410856555355378294
14428016 248 14405185083875959370
15065858 18 18334290947028254068
15247644 1 16515405166019265203
15510794 2 18412547587660870094
15554971 5 17240491294484576204
15690457 1 17240198837798319130
15706992 2 15769781294376172890
15728490 51 18334011696781676027
16992610 120 12823296827739357388
1754908 1 18342739606759970130
1754911 235 8502654796557474139
17686467 74 18343581828694178161
18335252 98 18343585123197331318
18603816 31 16950566631661396595
19302320 297 18201427122439930552
19315958 150 17632579349480605142
20105231 36 18335423431763948878
21095123 293 14189580736331117427
21130935 74 18268434525108646038
21792934 111 18412823590775581124
21895431 317 17458057157836267394
22002106 203 18199748228187608615
232437 2 18040435482516471722
24204213 200 15840996563623427151
249057 3 9511453429376232738
3092352 35 17821727214738161602
3178227 256 17775288274135324797
3383291 50 18334016115865446954
3711267 37 15482676792240337672
4017518 198 12684812217366629169
4339292 15 18113613522127245775
437795 160 18334575767436309211
439807 62 14129060310241694388
5219985 9 16588025701758153188
5719381 82 18113343037982232707
5758199 1 14045743708054958293
59521270 166 15068332398898854527
59682541 35 18202283606223841789
6081469 158 11097851883487202178
6691757 9 17458357325296120665
67123 10 18260832605146287124
9663363 56 18342738517241250117
9953998 17 17775284989208380951
9962374 69 17240484745107426494

> <PUBCHEM_SHAPE_MULTIPOLES>
617.15
40.17
1.71
1.3
14.97
0.01
-0.21
9.05
-17.58
-3.67
-0.05
2.4
0.1
2.87

> <PUBCHEM_SHAPE_SELFOVERLAP>
1360.735

> <PUBCHEM_SHAPE_VOLUME>
329.6

> <PUBCHEM_COORDINATE_TYPE>
2
5
10

$$$$