44565362
  -OEChem-03242010103D

 64 68  0     1  0  0  0  0  0999 V2000
    9.0721    2.4199    0.5998 O   0  0  0  0  0  0  0  0  0  0  0  0
   10.1505   -0.0848    0.0707 O   0  0  0  0  0  0  0  0  0  0  0  0
   -4.6436   -2.1303    1.1234 O   0  0  0  0  0  0  0  0  0  0  0  0
    3.7605   -0.4688   -0.3434 N   0  0  2  0  0  0  0  0  0  0  0  0
   -4.0828   -0.3372   -0.2905 N   0  0  0  0  0  0  0  0  0  0  0  0
   -6.6332    0.4520   -0.1684 N   0  0  0  0  0  0  0  0  0  0  0  0
    4.2208   -1.7737    0.1471 C   0  0  0  0  0  0  0  0  0  0  0  0
    4.5239    0.6151    0.3000 C   0  0  0  0  0  0  0  0  0  0  0  0
    5.6648   -2.0190   -0.3020 C   0  0  0  0  0  0  0  0  0  0  0  0
    6.0212    0.4284    0.2081 C   0  0  0  0  0  0  0  0  0  0  0  0
    6.5682   -0.8431   -0.0359 C   0  0  0  0  0  0  0  0  0  0  0  0
    2.3289   -0.2979   -0.0983 C   0  0  0  0  0  0  0  0  0  0  0  0
    1.5010   -1.0384   -1.1490 C   0  0  0  0  0  0  0  0  0  0  0  0
    6.8759    1.5163    0.4315 C   0  0  0  0  0  0  0  0  0  0  0  0
    7.9592   -1.0006   -0.0899 C   0  0  0  0  0  0  0  0  0  0  0  0
    8.2597    1.3476    0.3853 C   0  0  0  0  0  0  0  0  0  0  0  0
    8.8006    0.0909    0.1228 C   0  0  0  0  0  0  0  0  0  0  0  0
    0.0222   -0.8521   -0.9206 C   0  0  0  0  0  0  0  0  0  0  0  0
   -0.6772   -1.7483   -0.1122 C   0  0  0  0  0  0  0  0  0  0  0  0
   -0.6468    0.2158   -1.5188 C   0  0  0  0  0  0  0  0  0  0  0  0
   -2.0454   -1.5768    0.0978 C   0  0  0  0  0  0  0  0  0  0  0  0
   -2.0150    0.3874   -1.3088 C   0  0  0  0  0  0  0  0  0  0  0  0
   -2.7143   -0.5090   -0.5005 C   0  0  0  0  0  0  0  0  0  0  0  0
    9.4678    2.6737    1.9464 C   0  0  0  0  0  0  0  0  0  0  0  0
   10.7775    0.0854   -1.1991 C   0  0  0  0  0  0  0  0  0  0  0  0
   -4.9430   -1.1286    0.4824 C   0  0  0  0  0  0  0  0  0  0  0  0
   -6.3559   -0.6697    0.5350 C   0  0  0  0  0  0  0  0  0  0  0  0
   -8.9219    0.2631    0.5617 C   0  0  0  0  0  0  0  0  0  0  0  0
   -7.8977    0.9142   -0.1571 C   0  0  0  0  0  0  0  0  0  0  0  0
   -7.2895   -1.3747    1.2673 C   0  0  0  0  0  0  0  0  0  0  0  0
   -8.5916   -0.8959    1.2771 C   0  0  0  0  0  0  0  0  0  0  0  0
  -10.2311    0.7735    0.5515 C   0  0  0  0  0  0  0  0  0  0  0  0
   -8.2264    2.0655   -0.8676 C   0  0  0  0  0  0  0  0  0  0  0  0
  -10.5317    1.9267   -0.1677 C   0  0  0  0  0  0  0  0  0  0  0  0
   -9.5279    2.5732   -0.8781 C   0  0  0  0  0  0  0  0  0  0  0  0
    4.1555   -1.8215    1.2430 H   0  0  0  0  0  0  0  0  0  0  0  0
    3.6127   -2.5960   -0.2442 H   0  0  0  0  0  0  0  0  0  0  0  0
    4.2655    1.5618   -0.1911 H   0  0  0  0  0  0  0  0  0  0  0  0
    4.2587    0.6989    1.3626 H   0  0  0  0  0  0  0  0  0  0  0  0
    5.6825   -2.2250   -1.3799 H   0  0  0  0  0  0  0  0  0  0  0  0
    6.0491   -2.9065    0.2148 H   0  0  0  0  0  0  0  0  0  0  0  0
    2.0676    0.7673   -0.1683 H   0  0  0  0  0  0  0  0  0  0  0  0
    2.0548   -0.6106    0.9184 H   0  0  0  0  0  0  0  0  0  0  0  0
    1.7171   -2.1130   -1.1525 H   0  0  0  0  0  0  0  0  0  0  0  0
    1.7603   -0.6819   -2.1549 H   0  0  0  0  0  0  0  0  0  0  0  0
    6.4596    2.4989    0.6418 H   0  0  0  0  0  0  0  0  0  0  0  0
    8.3865   -1.9789   -0.2980 H   0  0  0  0  0  0  0  0  0  0  0  0
   -0.1652   -2.5826    0.3602 H   0  0  0  0  0  0  0  0  0  0  0  0
   -0.1124    0.9215   -2.1493 H   0  0  0  0  0  0  0  0  0  0  0  0
   -2.5150   -2.3117    0.7361 H   0  0  0  0  0  0  0  0  0  0  0  0
   -2.5235    1.2242   -1.7810 H   0  0  0  0  0  0  0  0  0  0  0  0
    8.5927    2.8793    2.5709 H   0  0  0  0  0  0  0  0  0  0  0  0
   10.1166    3.5538    1.9527 H   0  0  0  0  0  0  0  0  0  0  0  0
   10.0270    1.8239    2.3506 H   0  0  0  0  0  0  0  0  0  0  0  0
   10.3907   -0.6435   -1.9184 H   0  0  0  0  0  0  0  0  0  0  0  0
   10.6211    1.1022   -1.5731 H   0  0  0  0  0  0  0  0  0  0  0  0
   11.8512   -0.0805   -1.0760 H   0  0  0  0  0  0  0  0  0  0  0  0
   -4.4978    0.4666   -0.7573 H   0  0  0  0  0  0  0  0  0  0  0  0
   -7.0425   -2.2722    1.8233 H   0  0  0  0  0  0  0  0  0  0  0  0
   -9.3481   -1.4317    1.8460 H   0  0  0  0  0  0  0  0  0  0  0  0
  -11.0244    0.2751    1.1042 H   0  0  0  0  0  0  0  0  0  0  0  0
   -7.4578    2.5904   -1.4320 H   0  0  0  0  0  0  0  0  0  0  0  0
  -11.5444    2.3182   -0.1733 H   0  0  0  0  0  0  0  0  0  0  0  0
   -9.7535    3.4736   -1.4420 H   0  0  0  0  0  0  0  0  0  0  0  0
  1 16  1  0  0  0  0
  1 24  1  0  0  0  0
  2 17  1  0  0  0  0
  2 25  1  0  0  0  0
  3 26  2  0  0  0  0
  4  7  1  0  0  0  0
  4  8  1  0  0  0  0
  4 12  1  0  0  0  0
  5 23  1  0  0  0  0
  5 26  1  0  0  0  0
  5 58  1  0  0  0  0
  6 27  2  0  0  0  0
  6 29  1  0  0  0  0
  7  9  1  0  0  0  0
  7 36  1  0  0  0  0
  7 37  1  0  0  0  0
  8 10  1  0  0  0  0
  8 38  1  0  0  0  0
  8 39  1  0  0  0  0
  9 11  1  0  0  0  0
  9 40  1  0  0  0  0
  9 41  1  0  0  0  0
 10 11  1  0  0  0  0
 10 14  2  0  0  0  0
 11 15  2  0  0  0  0
 12 13  1  0  0  0  0
 12 42  1  0  0  0  0
 12 43  1  0  0  0  0
 13 18  1  0  0  0  0
 13 44  1  0  0  0  0
 13 45  1  0  0  0  0
 14 16  1  0  0  0  0
 14 46  1  0  0  0  0
 15 17  1  0  0  0  0
 15 47  1  0  0  0  0
 16 17  2  0  0  0  0
 18 19  2  0  0  0  0
 18 20  1  0  0  0  0
 19 21  1  0  0  0  0
 19 48  1  0  0  0  0
 20 22  2  0  0  0  0
 20 49  1  0  0  0  0
 21 23  2  0  0  0  0
 21 50  1  0  0  0  0
 22 23  1  0  0  0  0
 22 51  1  0  0  0  0
 24 52  1  0  0  0  0
 24 53  1  0  0  0  0
 24 54  1  0  0  0  0
 25 55  1  0  0  0  0
 25 56  1  0  0  0  0
 25 57  1  0  0  0  0
 26 27  1  0  0  0  0
 27 30  1  0  0  0  0
 28 29  1  0  0  0  0
 28 31  1  0  0  0  0
 28 32  2  0  0  0  0
 29 33  2  0  0  0  0
 30 31  2  0  0  0  0
 30 59  1  0  0  0  0
 31 60  1  0  0  0  0
 32 34  1  0  0  0  0
 32 61  1  0  0  0  0
 33 35  1  0  0  0  0
 33 62  1  0  0  0  0
 34 35  2  0  0  0  0
 34 63  1  0  0  0  0
 35 64  1  0  0  0  0
M  END
> <PUBCHEM_COMPOUND_CID>
44565362

> <PUBCHEM_CONFORMER_RMSD>
1

> <PUBCHEM_CONFORMER_DIVERSEORDER>
1
27
78
32
85
101
75
93
16
53
15
96
13
21
109
77
88
10
65
89
95
97
14
108
105
43
79
20
8
86
9
59
81
46
55
24
72
73
2
87
102
92
41
64
56
94
51
80
100
90
34
71
52
33
103
40
31
4
30
49
83
67
5
61
29
63
25
99
42
36
28
19
68
66
26
76
35
84
57
3
70
39
6
48
62
11
7
104
106
58
60
18
74
69
47
107
44
22
50
91
45
98
23
12
82
17
37
38
54

> <PUBCHEM_MMFF94_PARTIAL_CHARGES>
47
1 -0.36
10 -0.14
11 -0.14
12 0.27
13 0.14
14 -0.15
15 -0.15
16 0.08
17 0.08
18 -0.14
19 -0.15
2 -0.36
20 -0.15
21 -0.15
22 -0.15
23 0.12
24 0.28
25 0.28
26 0.54
27 0.4
29 0.31
3 -0.57
30 -0.15
31 -0.15
32 -0.15
33 -0.15
34 -0.15
35 -0.15
4 -0.81
46 0.15
47 0.15
48 0.15
49 0.15
5 -0.55
50 0.15
51 0.15
58 0.37
59 0.15
6 -0.62
60 0.15
61 0.15
62 0.15
63 0.15
64 0.15
7 0.27
8 0.41
9 0.14

> <PUBCHEM_EFFECTIVE_ROTOR_COUNT>
8.8

> <PUBCHEM_PHARMACOPHORE_FEATURES>
11
1 1 acceptor
1 2 acceptor
1 3 acceptor
1 4 cation
1 5 donor
1 6 acceptor
6 10 11 14 15 16 17 rings
6 18 19 20 21 22 23 rings
6 28 29 32 33 34 35 rings
6 4 7 8 9 10 11 rings
6 6 27 28 29 30 31 rings

> <PUBCHEM_HEAVY_ATOM_COUNT>
35

> <PUBCHEM_ATOM_DEF_STEREO_COUNT>
0

> <PUBCHEM_ATOM_UDEF_STEREO_COUNT>
0

> <PUBCHEM_BOND_DEF_STEREO_COUNT>
0

> <PUBCHEM_BOND_UDEF_STEREO_COUNT>
0

> <PUBCHEM_ISOTOPIC_ATOM_COUNT>
0

> <PUBCHEM_COMPONENT_COUNT>
1

> <PUBCHEM_CACTVS_TAUTO_COUNT>
2

> <PUBCHEM_CONFORMER_ID>
02A8037200000001

> <PUBCHEM_MMFF94_ENERGY>
122.1293

> <PUBCHEM_FEATURE_SELFOVERLAP>
55.881

> <PUBCHEM_SHAPE_FINGERPRINT>
10 15 18412545413943123255
10076449 9 11169911688795159583
10168742 298 9871473162195872776
10580692 12 18333170557991934507
10674148 151 17167866365964438041
11061554 47 18261954051684390317
11135609 127 13542170733315208986
11408170 108 13623519131065486520
11409948 35 18129667388526207022
11456790 92 17240491320934997837
11578821 258 18202283606936927897
11607047 141 18261947446372894410
12013929 2 18410295783404342550
12089408 11 17846775234977357790
12522641 33 17346600750792315567
12539745 222 12757141365038157039
12539747 363 16877662383304656141
13553643 46 18272936020207654713
14117953 113 13614522978576990994
14251764 46 13470688139663813270
14344974 52 11311766277128341342
14395042 24 17603588517094563685
14617042 71 18342176726407467456
15065858 18 18408886222772975159
15510794 2 18334860502151357251
15773216 30 12966866588764332780
15840311 113 18272091630765511892
1754911 235 13542463151340763235
1818759 1 12324238360582445544
19315958 150 18342179946820764302
19841028 212 17531805745176490594
2026 5 11242234252561963328
21362267 2 18060125575291498024
21362267 20 12107801726466558481
21362267 313 18041555824524741130
21792934 111 18187365423984547476
22149856 69 18333732430008538108
23576562 1 14907315595089141443
24771293 8 18186518821981107103
306946 40 18413102849796853013
3092352 35 16988843882160614783
335352 9 14189573044334774810
335507 130 13839984417363029595
4403749 210 18201156658884140983
4516262 110 17632577171747257414
4760202 170 16271638006089046824
5219985 9 15140682488287943967
54039377 194 8430311338809030011
57035037 87 18412546488217482857
59521660 218 16845018900914540615
6126387 218 18260831484513211673
636775 72 18337391540445570373
636775 8 10879985866678475909
9937071 3 11746932088512141616
9953998 17 18259984903145974387

> <PUBCHEM_SHAPE_MULTIPOLES>
687.73
46.93
2.31
1.19
1.39
0.94
0.07
26.92
7.82
0.02
0.44
0.01
0.24
4.38

> <PUBCHEM_SHAPE_SELFOVERLAP>
1504.438

> <PUBCHEM_SHAPE_VOLUME>
372.4

> <PUBCHEM_COORDINATE_TYPE>
2
5
10

$$$$