42636939
  -OEChem-03242010103D

 65 68  0     1  0  0  0  0  0999 V2000
    8.8724   -2.5093    0.1003 O   0  0  0  0  0  0  0  0  0  0  0  0
   10.2450   -0.1664   -0.4854 O   0  0  0  0  0  0  0  0  0  0  0  0
   -6.6516   -0.7430    0.8572 O   0  0  0  0  0  0  0  0  0  0  0  0
   -3.9897   -1.3360    2.3340 O   0  0  0  0  0  0  0  0  0  0  0  0
   -6.5969   -0.7989   -2.5177 O   0  5  0  0  0  0  0  0  0  0  0  0
   -7.7991   -2.4877   -1.7955 O   0  0  0  0  0  0  0  0  0  0  0  0
    3.9776    1.1548   -0.1408 N   0  0  1  0  0  0  0  0  0  0  0  0
   -3.7768    0.4542    0.8164 N   0  0  0  0  0  0  0  0  0  0  0  0
   -7.5048   -1.2691   -1.7921 N   0  3  0  0  0  0  0  0  0  0  0  0
    4.6780    2.3575    0.3262 C   0  0  0  0  0  0  0  0  0  0  0  0
    4.6384   -0.0542    0.3818 C   0  0  0  0  0  0  0  0  0  0  0  0
    6.0834    2.4105   -0.2814 C   0  0  0  0  0  0  0  0  0  0  0  0
    6.1272   -0.0823    0.1212 C   0  0  0  0  0  0  0  0  0  0  0  0
    6.8261    1.1060   -0.1525 C   0  0  0  0  0  0  0  0  0  0  0  0
    2.5724    1.1822    0.2637 C   0  0  0  0  0  0  0  0  0  0  0  0
    1.7185    0.3170   -0.6637 C   0  0  0  0  0  0  0  0  0  0  0  0
    6.8303   -1.2909    0.2153 C   0  0  0  0  0  0  0  0  0  0  0  0
    8.2101    1.0629   -0.3647 C   0  0  0  0  0  0  0  0  0  0  0  0
    8.2096   -1.3222    0.0117 C   0  0  0  0  0  0  0  0  0  0  0  0
    8.8984   -0.1471   -0.2803 C   0  0  0  0  0  0  0  0  0  0  0  0
    0.2632    0.3541   -0.2708 C   0  0  0  0  0  0  0  0  0  0  0  0
   -0.2381   -0.5788    0.6371 C   0  0  0  0  0  0  0  0  0  0  0  0
   -0.5821    1.3204   -0.8160 C   0  0  0  0  0  0  0  0  0  0  0  0
   -1.5846   -0.5456    0.9995 C   0  0  0  0  0  0  0  0  0  0  0  0
   -1.9287    1.3537   -0.4537 C   0  0  0  0  0  0  0  0  0  0  0  0
   -2.4299    0.4207    0.4540 C   0  0  0  0  0  0  0  0  0  0  0  0
    8.0934   -3.6651    0.4029 C   0  0  0  0  0  0  0  0  0  0  0  0
   10.8735    1.0799   -0.7793 C   0  0  0  0  0  0  0  0  0  0  0  0
   -4.4555   -0.3913    1.7041 C   0  0  0  0  0  0  0  0  0  0  0  0
   -5.9193   -0.0300    1.8323 C   0  0  0  0  0  0  0  0  0  0  0  0
   -7.7875   -0.1451    0.3652 C   0  0  0  0  0  0  0  0  0  0  0  0
   -8.2248   -0.3906   -0.9363 C   0  0  0  0  0  0  0  0  0  0  0  0
   -8.5061    0.7194    1.1909 C   0  0  0  0  0  0  0  0  0  0  0  0
   -9.3805    0.2285   -1.4123 C   0  0  0  0  0  0  0  0  0  0  0  0
   -9.6620    1.3385    0.7152 C   0  0  0  0  0  0  0  0  0  0  0  0
  -10.0992    1.0930   -0.5864 C   0  0  0  0  0  0  0  0  0  0  0  0
    4.7352    2.3738    1.4231 H   0  0  0  0  0  0  0  0  0  0  0  0
    4.1467    3.2656    0.0152 H   0  0  0  0  0  0  0  0  0  0  0  0
    4.1987   -0.9381   -0.0940 H   0  0  0  0  0  0  0  0  0  0  0  0
    4.4913   -0.1440    1.4667 H   0  0  0  0  0  0  0  0  0  0  0  0
    6.6491    3.2113    0.2097 H   0  0  0  0  0  0  0  0  0  0  0  0
    6.0114    2.6570   -1.3484 H   0  0  0  0  0  0  0  0  0  0  0  0
    2.4443    0.8916    1.3151 H   0  0  0  0  0  0  0  0  0  0  0  0
    2.1854    2.2082    0.1902 H   0  0  0  0  0  0  0  0  0  0  0  0
    2.0549   -0.7268   -0.6570 H   0  0  0  0  0  0  0  0  0  0  0  0
    1.8232    0.6562   -1.7030 H   0  0  0  0  0  0  0  0  0  0  0  0
    6.2422   -2.1717    0.4517 H   0  0  0  0  0  0  0  0  0  0  0  0
    8.6906    2.0086   -0.5933 H   0  0  0  0  0  0  0  0  0  0  0  0
    0.4123   -1.3347    1.0695 H   0  0  0  0  0  0  0  0  0  0  0  0
   -0.2029    2.0535   -1.5230 H   0  0  0  0  0  0  0  0  0  0  0  0
   -1.8986   -1.2994    1.7078 H   0  0  0  0  0  0  0  0  0  0  0  0
   -2.5759    2.1124   -0.8863 H   0  0  0  0  0  0  0  0  0  0  0  0
    8.7805   -4.5173    0.4332 H   0  0  0  0  0  0  0  0  0  0  0  0
    7.3611   -3.8763   -0.3838 H   0  0  0  0  0  0  0  0  0  0  0  0
    7.6333   -3.5939    1.3944 H   0  0  0  0  0  0  0  0  0  0  0  0
   11.9417    0.8782   -0.9114 H   0  0  0  0  0  0  0  0  0  0  0  0
   10.7848    1.7839    0.0551 H   0  0  0  0  0  0  0  0  0  0  0  0
   10.5117    1.5020   -1.7231 H   0  0  0  0  0  0  0  0  0  0  0  0
   -4.3252    1.1854    0.3685 H   0  0  0  0  0  0  0  0  0  0  0  0
   -6.2580   -0.3162    2.8347 H   0  0  0  0  0  0  0  0  0  0  0  0
   -6.0081    1.0591    1.7264 H   0  0  0  0  0  0  0  0  0  0  0  0
   -8.2212    0.9146    2.2204 H   0  0  0  0  0  0  0  0  0  0  0  0
   -9.7338    0.0466   -2.4244 H   0  0  0  0  0  0  0  0  0  0  0  0
  -10.2260    2.0059    1.3601 H   0  0  0  0  0  0  0  0  0  0  0  0
  -11.0002    1.5737   -0.9562 H   0  0  0  0  0  0  0  0  0  0  0  0
  1 19  1  0  0  0  0
  1 27  1  0  0  0  0
  2 20  1  0  0  0  0
  2 28  1  0  0  0  0
  3 30  1  0  0  0  0
  3 31  1  0  0  0  0
  4 29  2  0  0  0  0
  5  9  1  0  0  0  0
  6  9  2  0  0  0  0
  7 10  1  0  0  0  0
  7 11  1  0  0  0  0
  7 15  1  0  0  0  0
  8 26  1  0  0  0  0
  8 29  1  0  0  0  0
  8 59  1  0  0  0  0
  9 32  1  0  0  0  0
 10 12  1  0  0  0  0
 10 37  1  0  0  0  0
 10 38  1  0  0  0  0
 11 13  1  0  0  0  0
 11 39  1  0  0  0  0
 11 40  1  0  0  0  0
 12 14  1  0  0  0  0
 12 41  1  0  0  0  0
 12 42  1  0  0  0  0
 13 14  1  0  0  0  0
 13 17  2  0  0  0  0
 14 18  2  0  0  0  0
 15 16  1  0  0  0  0
 15 43  1  0  0  0  0
 15 44  1  0  0  0  0
 16 21  1  0  0  0  0
 16 45  1  0  0  0  0
 16 46  1  0  0  0  0
 17 19  1  0  0  0  0
 17 47  1  0  0  0  0
 18 20  1  0  0  0  0
 18 48  1  0  0  0  0
 19 20  2  0  0  0  0
 21 22  2  0  0  0  0
 21 23  1  0  0  0  0
 22 24  1  0  0  0  0
 22 49  1  0  0  0  0
 23 25  2  0  0  0  0
 23 50  1  0  0  0  0
 24 26  2  0  0  0  0
 24 51  1  0  0  0  0
 25 26  1  0  0  0  0
 25 52  1  0  0  0  0
 27 53  1  0  0  0  0
 27 54  1  0  0  0  0
 27 55  1  0  0  0  0
 28 56  1  0  0  0  0
 28 57  1  0  0  0  0
 28 58  1  0  0  0  0
 29 30  1  0  0  0  0
 30 60  1  0  0  0  0
 30 61  1  0  0  0  0
 31 32  1  0  0  0  0
 31 33  2  0  0  0  0
 32 34  2  0  0  0  0
 33 35  1  0  0  0  0
 33 62  1  0  0  0  0
 34 36  1  0  0  0  0
 34 63  1  0  0  0  0
 35 36  2  0  0  0  0
 35 64  1  0  0  0  0
 36 65  1  0  0  0  0
M  CHG  2   5  -1   9   1
M  END
> <PUBCHEM_COMPOUND_CID>
42636939

> <PUBCHEM_CONFORMER_RMSD>
1.2

> <PUBCHEM_CONFORMER_DIVERSEORDER>
28
68
98
60
125
6
78
30
54
4
67
107
102
90
136
84
86
62
121
32
101
145
116
13
20
59
45
123
131
87
63
48
2
42
126
75
92
3
57
76
35
122
79
36
91
151
52
50
37
14
51
7
134
143
105
144
44
1
85
53
139
29
88
148
149
58
73
55
33
77
129
72
16
111
47
153
104
146
118
61
40
128
100
124
141
43
18
140
80
110
109
34
147
39
93
115
26
9
70
24
10
69
108
99
21
135
152
113
96
65
56
97
27
8
120
19
38
31
150
17
130
25
114
46
132
15
83
142
5
127
106
66
119
49
11
95
41
64
71
94
89
12
133
82
22
137
112
138
74
117
103
81
23

> <PUBCHEM_MMFF94_PARTIAL_CHARGES>
47
1 -0.36
10 0.27
11 0.41
12 0.14
13 -0.14
14 -0.14
15 0.27
16 0.14
17 -0.15
18 -0.15
19 0.08
2 -0.36
20 0.08
21 -0.14
22 -0.15
23 -0.15
24 -0.15
25 -0.15
26 0.12
27 0.28
28 0.28
29 0.57
3 -0.36
30 0.34
31 0.08
32 0.13
33 -0.15
34 -0.15
35 -0.15
36 -0.15
4 -0.57
47 0.15
48 0.15
49 0.15
5 -0.52
50 0.15
51 0.15
52 0.15
59 0.37
6 -0.52
62 0.15
63 0.15
64 0.15
65 0.15
7 -0.81
8 -0.55
9 0.91

> <PUBCHEM_EFFECTIVE_ROTOR_COUNT>
11.8

> <PUBCHEM_PHARMACOPHORE_FEATURES>
13
1 1 acceptor
1 2 acceptor
1 3 acceptor
1 4 acceptor
1 5 acceptor
1 5 anion
1 6 acceptor
1 7 cation
1 8 donor
6 13 14 17 18 19 20 rings
6 21 22 23 24 25 26 rings
6 31 32 33 34 35 36 rings
6 7 10 11 12 13 14 rings

> <PUBCHEM_HEAVY_ATOM_COUNT>
36

> <PUBCHEM_ATOM_DEF_STEREO_COUNT>
0

> <PUBCHEM_ATOM_UDEF_STEREO_COUNT>
0

> <PUBCHEM_BOND_DEF_STEREO_COUNT>
0

> <PUBCHEM_BOND_UDEF_STEREO_COUNT>
0

> <PUBCHEM_ISOTOPIC_ATOM_COUNT>
0

> <PUBCHEM_COMPONENT_COUNT>
1

> <PUBCHEM_CACTVS_TAUTO_COUNT>
2

> <PUBCHEM_CONFORMER_ID>
028A968B0000001C

> <PUBCHEM_MMFF94_ENERGY>
131.3374

> <PUBCHEM_FEATURE_SELFOVERLAP>
66.082

> <PUBCHEM_SHAPE_FINGERPRINT>
10076449 9 15791730802679793525
10162869 55 17203609289543539404
10883706 142 12823297888443090756
11211813 89 17676209086797323049
11409948 35 18261392188125430314
11672396 167 17896594000164945266
12013929 2 18333734598292127185
12089408 11 17775569753449493273
12144603 126 18272089358479886011
12522641 33 18342459222673882103
12664476 115 18407476670335942552
12728208 25 18411705357617276410
12758862 11 17748827453820891945
13740195 50 13686293578141067399
14279260 333 18334860499142968609
14428016 248 11674881091216867614
15247644 1 17346601876400729798
15347591 1 17243597557305350809
15392192 104 16702305655527072158
15461852 350 18060421330922943561
15510794 2 17894636975907366538
1754911 235 18407758144763435907
19301679 30 17701831999409253552
21792938 169 17916583129610037478
335507 130 11167940251424375937
395649 100 17917993906592173007
42767 2 18411419509677841085
437795 160 16343978117704479731
439807 62 18040438777062154794
44389302 135 17845931837156949966
4625314 4 18113623429556227992
5381727 24 14045746998179527764
6081469 158 17894912914950943476
6201320 215 18200599073867144593
6691757 9 17418104247495540507
67123 10 9799690389871233881
9962374 69 18342733049146567028

> <PUBCHEM_SHAPE_MULTIPOLES>
690.7
44.81
2.23
1.5
2.22
1.29
-0.2
5.19
-9.29
-5.34
-0.13
4.96
0.54
-1.53

> <PUBCHEM_SHAPE_SELFOVERLAP>
1480.74

> <PUBCHEM_SHAPE_VOLUME>
381.7

> <PUBCHEM_COORDINATE_TYPE>
2
5
10

$$$$