44565438
  -OEChem-03242010103D

 63 66  0     1  0  0  0  0  0999 V2000
  -12.9308    1.5061   -0.1765 Cl  0  0  0  0  0  0  0  0  0  0  0  0
    9.2518    2.3781   -0.1409 O   0  0  0  0  0  0  0  0  0  0  0  0
   10.2262   -0.1582    0.4373 O   0  0  0  0  0  0  0  0  0  0  0  0
   -4.6927   -1.2164    1.2307 O   0  0  0  0  0  0  0  0  0  0  0  0
    3.8537   -0.5033   -0.2134 N   0  0  2  0  0  0  0  0  0  0  0  0
   -3.9655   -0.1506   -0.7367 N   0  0  0  0  0  0  0  0  0  0  0  0
    4.2216   -1.5168    0.7829 C   0  0  0  0  0  0  0  0  0  0  0  0
    4.6382    0.7263   -0.0025 C   0  0  0  0  0  0  0  0  0  0  0  0
    5.6720   -1.9594    0.5642 C   0  0  0  0  0  0  0  0  0  0  0  0
    6.1267    0.4782    0.0864 C   0  0  0  0  0  0  0  0  0  0  0  0
    6.6197   -0.7996    0.4024 C   0  0  0  0  0  0  0  0  0  0  0  0
    2.4222   -0.2105   -0.1514 C   0  0  0  0  0  0  0  0  0  0  0  0
    1.6113   -1.2855   -0.8755 C   0  0  0  0  0  0  0  0  0  0  0  0
    7.0236    1.5416   -0.0830 C   0  0  0  0  0  0  0  0  0  0  0  0
    8.0017   -1.0029    0.5075 C   0  0  0  0  0  0  0  0  0  0  0  0
    8.3975    1.3313    0.0333 C   0  0  0  0  0  0  0  0  0  0  0  0
    8.8860    0.0600    0.3260 C   0  0  0  0  0  0  0  0  0  0  0  0
    0.1343   -0.9840   -0.8382 C   0  0  0  0  0  0  0  0  0  0  0  0
   -0.6495   -1.4650    0.2107 C   0  0  0  0  0  0  0  0  0  0  0  0
   -0.4485   -0.2250   -1.8530 C   0  0  0  0  0  0  0  0  0  0  0  0
   -2.0160   -1.1874    0.2446 C   0  0  0  0  0  0  0  0  0  0  0  0
   -1.8150    0.0527   -1.8193 C   0  0  0  0  0  0  0  0  0  0  0  0
   -2.5988   -0.4285   -0.7705 C   0  0  0  0  0  0  0  0  0  0  0  0
    9.5920    3.1364    1.0183 C   0  0  0  0  0  0  0  0  0  0  0  0
   10.9238   -0.5246   -0.7516 C   0  0  0  0  0  0  0  0  0  0  0  0
   -4.9037   -0.5452    0.2274 C   0  0  0  0  0  0  0  0  0  0  0  0
   -6.2738   -0.0432   -0.0981 C   0  0  0  0  0  0  0  0  0  0  0  0
   -7.3033   -0.3237    0.7149 C   0  0  0  0  0  0  0  0  0  0  0  0
   -8.6890    0.1269    0.4952 C   0  0  0  0  0  0  0  0  0  0  0  0
   -9.0999    0.5244   -0.7772 C   0  0  0  0  0  0  0  0  0  0  0  0
   -9.5900    0.1556    1.5597 C   0  0  0  0  0  0  0  0  0  0  0  0
  -10.4116    0.9507   -0.9850 C   0  0  0  0  0  0  0  0  0  0  0  0
  -10.9017    0.5819    1.3518 C   0  0  0  0  0  0  0  0  0  0  0  0
  -11.3125    0.9795    0.0795 C   0  0  0  0  0  0  0  0  0  0  0  0
    4.0991   -1.1226    1.8012 H   0  0  0  0  0  0  0  0  0  0  0  0
    3.5927   -2.4103    0.7096 H   0  0  0  0  0  0  0  0  0  0  0  0
    4.3247    1.2333    0.9201 H   0  0  0  0  0  0  0  0  0  0  0  0
    4.4534    1.4057   -0.8441 H   0  0  0  0  0  0  0  0  0  0  0  0
    5.9841   -2.5777    1.4144 H   0  0  0  0  0  0  0  0  0  0  0  0
    5.7331   -2.5780   -0.3404 H   0  0  0  0  0  0  0  0  0  0  0  0
    2.2194    0.7454   -0.6544 H   0  0  0  0  0  0  0  0  0  0  0  0
    2.0819   -0.0850    0.8854 H   0  0  0  0  0  0  0  0  0  0  0  0
    1.7722   -2.2781   -0.4392 H   0  0  0  0  0  0  0  0  0  0  0  0
    1.9385   -1.3661   -1.9209 H   0  0  0  0  0  0  0  0  0  0  0  0
    6.6479    2.5375   -0.3068 H   0  0  0  0  0  0  0  0  0  0  0  0
    8.3885   -1.9943    0.7324 H   0  0  0  0  0  0  0  0  0  0  0  0
   -0.2051   -2.0557    1.0076 H   0  0  0  0  0  0  0  0  0  0  0  0
    0.1521    0.1567   -2.6744 H   0  0  0  0  0  0  0  0  0  0  0  0
   -2.5548   -1.5940    1.0887 H   0  0  0  0  0  0  0  0  0  0  0  0
   -2.2555    0.6458   -2.6168 H   0  0  0  0  0  0  0  0  0  0  0  0
    8.6982    3.5971    1.4510 H   0  0  0  0  0  0  0  0  0  0  0  0
   10.0861    2.5030    1.7619 H   0  0  0  0  0  0  0  0  0  0  0  0
   10.2837    3.9284    0.7187 H   0  0  0  0  0  0  0  0  0  0  0  0
   11.9802   -0.6566   -0.5020 H   0  0  0  0  0  0  0  0  0  0  0  0
   10.8385    0.2630   -1.5069 H   0  0  0  0  0  0  0  0  0  0  0  0
   10.5369   -1.4689   -1.1475 H   0  0  0  0  0  0  0  0  0  0  0  0
   -4.3053    0.4087   -1.5165 H   0  0  0  0  0  0  0  0  0  0  0  0
   -6.3789    0.5618   -0.9911 H   0  0  0  0  0  0  0  0  0  0  0  0
   -7.1468   -0.9124    1.6157 H   0  0  0  0  0  0  0  0  0  0  0  0
   -8.4402    0.4991   -1.6394 H   0  0  0  0  0  0  0  0  0  0  0  0
   -9.2870   -0.1496    2.5583 H   0  0  0  0  0  0  0  0  0  0  0  0
  -10.7196    1.2536   -1.9826 H   0  0  0  0  0  0  0  0  0  0  0  0
  -11.5929    0.5994    2.1906 H   0  0  0  0  0  0  0  0  0  0  0  0
  1 34  1  0  0  0  0
  2 16  1  0  0  0  0
  2 24  1  0  0  0  0
  3 17  1  0  0  0  0
  3 25  1  0  0  0  0
  4 26  2  0  0  0  0
  5  7  1  0  0  0  0
  5  8  1  0  0  0  0
  5 12  1  0  0  0  0
  6 23  1  0  0  0  0
  6 26  1  0  0  0  0
  6 57  1  0  0  0  0
  7  9  1  0  0  0  0
  7 35  1  0  0  0  0
  7 36  1  0  0  0  0
  8 10  1  0  0  0  0
  8 37  1  0  0  0  0
  8 38  1  0  0  0  0
  9 11  1  0  0  0  0
  9 39  1  0  0  0  0
  9 40  1  0  0  0  0
 10 11  1  0  0  0  0
 10 14  2  0  0  0  0
 11 15  2  0  0  0  0
 12 13  1  0  0  0  0
 12 41  1  0  0  0  0
 12 42  1  0  0  0  0
 13 18  1  0  0  0  0
 13 43  1  0  0  0  0
 13 44  1  0  0  0  0
 14 16  1  0  0  0  0
 14 45  1  0  0  0  0
 15 17  1  0  0  0  0
 15 46  1  0  0  0  0
 16 17  2  0  0  0  0
 18 19  2  0  0  0  0
 18 20  1  0  0  0  0
 19 21  1  0  0  0  0
 19 47  1  0  0  0  0
 20 22  2  0  0  0  0
 20 48  1  0  0  0  0
 21 23  2  0  0  0  0
 21 49  1  0  0  0  0
 22 23  1  0  0  0  0
 22 50  1  0  0  0  0
 24 51  1  0  0  0  0
 24 52  1  0  0  0  0
 24 53  1  0  0  0  0
 25 54  1  0  0  0  0
 25 55  1  0  0  0  0
 25 56  1  0  0  0  0
 26 27  1  0  0  0  0
 27 28  2  0  0  0  0
 27 58  1  0  0  0  0
 28 29  1  0  0  0  0
 28 59  1  0  0  0  0
 29 30  2  0  0  0  0
 29 31  1  0  0  0  0
 30 32  1  0  0  0  0
 30 60  1  0  0  0  0
 31 33  2  0  0  0  0
 31 61  1  0  0  0  0
 32 34  2  0  0  0  0
 32 62  1  0  0  0  0
 33 34  1  0  0  0  0
 33 63  1  0  0  0  0
M  END
> <PUBCHEM_COMPOUND_CID>
44565438

> <PUBCHEM_CONFORMER_RMSD>
1

> <PUBCHEM_CONFORMER_DIVERSEORDER>
1
51
29
45
56
5
32
41
2
57
50
61
37
55
10
48
49
24
26
63
52
59
38
27
42
65
21
58
12
23
64
40
6
17
33
20
34
8
18
53
39
25
3
62
9
44
11
13
60
19
54
36
22
4
16
7
31
14
15
35
46
47
43
30
28

> <PUBCHEM_MMFF94_PARTIAL_CHARGES>
47
1 -0.18
10 -0.14
11 -0.14
12 0.27
13 0.14
14 -0.15
15 -0.15
16 0.08
17 0.08
18 -0.14
19 -0.15
2 -0.36
20 -0.15
21 -0.15
22 -0.15
23 0.12
24 0.28
25 0.28
26 0.62
27 -0.14
28 -0.18
29 0.03
3 -0.36
30 -0.15
31 -0.15
32 -0.15
33 -0.15
34 0.18
4 -0.57
45 0.15
46 0.15
47 0.15
48 0.15
49 0.15
5 -0.81
50 0.15
57 0.37
58 0.15
59 0.15
6 -0.55
60 0.15
61 0.15
62 0.15
63 0.15
7 0.27
8 0.41
9 0.14

> <PUBCHEM_EFFECTIVE_ROTOR_COUNT>
9.8

> <PUBCHEM_PHARMACOPHORE_FEATURES>
9
1 2 acceptor
1 3 acceptor
1 4 acceptor
1 5 cation
1 6 donor
6 10 11 14 15 16 17 rings
6 18 19 20 21 22 23 rings
6 29 30 31 32 33 34 rings
6 5 7 8 9 10 11 rings

> <PUBCHEM_HEAVY_ATOM_COUNT>
34

> <PUBCHEM_ATOM_DEF_STEREO_COUNT>
0

> <PUBCHEM_ATOM_UDEF_STEREO_COUNT>
0

> <PUBCHEM_BOND_DEF_STEREO_COUNT>
1

> <PUBCHEM_BOND_UDEF_STEREO_COUNT>
0

> <PUBCHEM_ISOTOPIC_ATOM_COUNT>
0

> <PUBCHEM_COMPONENT_COUNT>
1

> <PUBCHEM_CACTVS_TAUTO_COUNT>
2

> <PUBCHEM_CONFORMER_ID>
02A803BE00000001

> <PUBCHEM_MMFF94_ENERGY>
114.9172

> <PUBCHEM_FEATURE_SELFOVERLAP>
45.698

> <PUBCHEM_SHAPE_FINGERPRINT>
10533779 47 17603585192625930026
106641 1 17749109993669293279
10674148 151 15357700791038980297
11061554 47 18261391106168335093
11672396 167 16443920479193477091
12013929 2 18409168787864173058
12089408 11 18130782382228839302
12498461 61 15140972777613478737
12522641 33 17775568624237637695
12539745 222 13045933604558827143
12664476 115 17775282759703733617
12741549 16 15647054859668910311
13553643 46 18411421679855676609
13740195 50 18040715862229179053
14117953 113 14548739525712132288
14202775 3 9655575232129765413
14251764 46 13470687040347338275
14344974 52 13686288093737076523
15061470 23 18131631192320313993
15247644 1 10737287944559304537
155225 1 18060138739317857705
15773216 30 14332862443233016173
15840311 113 18410577319349300836
16728433 110 18260829298158976709
16992610 120 16343986922877865701
1754911 235 13830129478201382147
19315958 150 18408606937797517067
19841028 212 15141232184035359729
20501277 279 17822010899871662619
21102433 48 12324240577271426225
21362267 2 18341036506410221192
21792934 111 17530685407388718437
21895431 317 9727091832435437380
232437 2 7997970176685407881
24771293 8 16773807966138894497
3092352 35 17775564243444595207
335352 9 14979955878254680939
44389302 135 14634864254067491177
54039377 194 10881400942138054667
57828716 8 10807943640229180148
59521099 67 8934990478573137730
6126387 218 17749391452135852875
636775 8 13542458788329178525
6673363 416 14117803497454541539
9937071 3 14851606557713765865
9953998 17 18041279950032604627

> <PUBCHEM_SHAPE_MULTIPOLES>
674
53.39
1.82
1.23
60.81
1.04
0.18
28.67
-9.45
-4.97
-0.37
1.64
-0.04
0.76

> <PUBCHEM_SHAPE_SELFOVERLAP>
1434.431

> <PUBCHEM_SHAPE_VOLUME>
376.6

> <PUBCHEM_COORDINATE_TYPE>
2
5
10

$$$$