13
 OpenBabel03292021423D

110114  0  0  0  0  0  0  0  0999 V2000
    0.6199    6.6505    8.0538 C   0  0  0  0  0  0  0  0  0  0  0  0
    2.0183    6.7591    8.2843 O   0  0  0  0  0  0  0  0  0  0  0  0
    2.7475    6.0058    7.3222 C   0  0  0  0  0  0  0  0  0  0  0  0
    4.2413    6.1531    7.5649 C   0  0  0  0  0  0  0  0  0  0  0  0
    4.8997    5.3649    6.5835 O   0  0  0  0  0  0  0  0  0  0  0  0
    6.3148    5.4235    6.6956 C   0  0  0  0  0  0  0  0  0  0  0  0
    6.8667    4.5381    5.5948 C   0  0  0  0  0  0  0  0  0  0  0  0
    8.2838    4.5540    5.6216 O   0  0  0  0  0  0  0  0  0  0  0  0
    8.8055    3.6640    4.6348 C   0  0  0  0  0  0  0  0  0  0  0  0
   10.3174    3.6821    4.7185 C   0  0  0  0  0  0  0  0  0  0  0  0
   10.7266    3.0528    5.9393 O   0  0  0  0  0  0  0  0  0  0  0  0
   12.0570    3.1558    6.2510 C   0  0  0  0  0  0  0  0  0  0  0  0
   12.9942    3.5863    5.2993 C   0  0  0  0  0  0  0  0  0  0  0  0
   14.3385    3.7181    5.6211 C   0  0  0  0  0  0  0  0  0  0  0  0
   14.7749    3.3754    6.9007 C   0  0  0  0  0  0  0  0  0  0  0  0
   13.8660    2.9041    7.8455 C   0  0  0  0  0  0  0  0  0  0  0  0
   12.5004    2.8011    7.5384 C   0  0  0  0  0  0  0  0  0  0  0  0
   11.7725    2.3487    8.6078 O   0  0  0  0  0  0  0  0  0  0  0  0
   10.3595    2.2975    8.5014 C   0  0  0  0  0  0  0  0  0  0  0  0
   16.2304    3.5854    7.1893 C   0  0  0  0  0  0  0  0  0  0  0  0
   16.6391    4.9253    6.5601 C   0  0  0  0  0  0  0  0  0  0  0  0
   16.3862    5.0649    5.1111 N   0  0  0  0  0  0  0  0  0  0  0  0
   17.5963    4.9279    4.2901 C   0  0  0  0  0  0  0  0  0  0  0  0
   18.6150    6.0585    4.4994 C   0  0  0  0  0  0  0  0  0  0  0  0
   19.8503    5.8242    3.6667 C   0  0  0  0  0  0  0  0  0  0  0  0
   19.8007    5.9875    2.2795 C   0  0  0  0  0  0  0  0  0  0  0  0
   20.9346    5.7630    1.5000 C   0  0  0  0  0  0  0  0  0  0  0  0
   22.1410    5.3880    2.0927 C   0  0  0  0  0  0  0  0  0  0  0  0
   23.3385    5.2009    1.3720 N   0  0  0  0  0  0  0  0  0  0  0  0
   23.5374    5.4281    0.0213 C   0  0  0  0  0  0  0  0  0  0  0  0
   22.7140    5.8165   -0.7972 O   0  0  0  0  0  0  0  0  0  0  0  0
   24.9264    5.2114   -0.4570 C   0  0  0  0  0  0  0  0  0  0  0  0
   25.6984    4.1543    0.0211 C   0  0  0  0  0  0  0  0  0  0  0  0
   26.9969    4.0009   -0.4547 C   0  0  0  0  0  0  0  0  0  0  0  0
   27.5282    4.8744   -1.4317 C   0  0  0  0  0  0  0  0  0  0  0  0
   28.9817    4.6812   -1.6468 C   0  0  0  0  0  0  0  0  0  0  0  0
   29.7548    4.6262   -0.7014 O   0  0  0  0  0  0  0  0  0  0  0  0
   29.3496    4.3868   -2.9027 O   0  0  0  0  0  0  0  0  0  0  0  0
   26.7400    5.9302   -1.9441 C   0  0  0  0  0  0  0  0  0  0  0  0
   27.1457    6.8870   -2.9231 N   0  0  0  0  0  0  0  0  0  0  0  0
   27.5748    6.5013   -4.1871 C   0  0  0  0  0  0  0  0  0  0  0  0
   27.7254    5.3121   -4.4852 O   0  0  0  0  0  0  0  0  0  0  0  0
   27.7898    7.5607   -5.2278 C   0  0  0  0  0  0  0  0  0  0  0  0
   28.0887    7.1308   -6.5142 C   0  0  0  0  0  0  0  0  0  0  0  0
   28.3077    8.0810   -7.4991 C   0  0  0  0  0  0  0  0  0  0  0  0
   28.2002    9.4342   -7.1862 C   0  0  0  0  0  0  0  0  0  0  0  0
   28.3811   10.4004   -8.1913 C   0  0  0  0  0  0  0  0  0  0  0  0
   28.2225   11.7509   -7.9005 C   0  0  0  0  0  0  0  0  0  0  0  0
   27.9159   12.1331   -6.6047 C   0  0  0  0  0  0  0  0  0  0  0  0
   27.7661   11.1640   -5.5974 C   0  0  0  0  0  0  0  0  0  0  0  0
   27.8817    9.7971   -5.8536 C   0  0  0  0  0  0  0  0  0  0  0  0
   27.6771    8.8711   -4.8745 N   0  0  0  0  0  0  0  0  0  0  0  0
   25.4423    6.0879   -1.4312 C   0  0  0  0  0  0  0  0  0  0  0  0
   22.1838    5.2001    3.4797 C   0  0  0  0  0  0  0  0  0  0  0  0
   21.0465    5.4139    4.2625 C   0  0  0  0  0  0  0  0  0  0  0  0
   15.3498    4.1513    4.5936 C   0  0  0  0  0  0  0  0  0  0  0  0
    0.9239   -0.3596   -2.1908 O   0  0  0  0  0  0  0  0  0  0  0  0
    2.0071   -0.2933   -1.6227 C   0  0  0  0  0  0  0  0  0  0  0  0
    2.4499   -1.3120   -0.8209 O   0  0  0  0  0  0  0  0  0  0  0  0
    2.9854    0.8849   -1.6934 C   0  0  0  0  0  0  0  0  0  0  0  0
    4.1606    0.5615   -1.0706 F   0  0  0  0  0  0  0  0  0  0  0  0
    3.3101    1.2460   -2.9618 F   0  0  0  0  0  0  0  0  0  0  0  0
    2.5217    1.9970   -1.0639 F   0  0  0  0  0  0  0  0  0  0  0  0
    0.0987    7.2174    8.8284 H   0  0  0  0  0  0  0  0  0  0  0  0
    0.3024    5.6044    8.1087 H   0  0  0  0  0  0  0  0  0  0  0  0
    0.3628    7.0701    7.0762 H   0  0  0  0  0  0  0  0  0  0  0  0
    2.5066    6.3498    6.3083 H   0  0  0  0  0  0  0  0  0  0  0  0
    2.4697    4.9459    7.3837 H   0  0  0  0  0  0  0  0  0  0  0  0
    4.5026    5.8068    8.5715 H   0  0  0  0  0  0  0  0  0  0  0  0
    4.5415    7.2036    7.4759 H   0  0  0  0  0  0  0  0  0  0  0  0
    6.6420    5.0603    7.6772 H   0  0  0  0  0  0  0  0  0  0  0  0
    6.6721    6.4532    6.5766 H   0  0  0  0  0  0  0  0  0  0  0  0
    6.5091    4.8907    4.6196 H   0  0  0  0  0  0  0  0  0  0  0  0
    6.4984    3.5140    5.7320 H   0  0  0  0  0  0  0  0  0  0  0  0
    8.4903    4.0048    3.6423 H   0  0  0  0  0  0  0  0  0  0  0  0
    8.4292    2.6520    4.8185 H   0  0  0  0  0  0  0  0  0  0  0  0
   10.6602    4.7248    4.6952 H   0  0  0  0  0  0  0  0  0  0  0  0
   10.7137    3.1169    3.8677 H   0  0  0  0  0  0  0  0  0  0  0  0
   12.7063    3.8383    4.2848 H   0  0  0  0  0  0  0  0  0  0  0  0
   14.2065    2.6373    8.8435 H   0  0  0  0  0  0  0  0  0  0  0  0
    9.9726    1.9477    9.4644 H   0  0  0  0  0  0  0  0  0  0  0  0
   10.0460    1.5694    7.7480 H   0  0  0  0  0  0  0  0  0  0  0  0
    9.9347    3.2900    8.3223 H   0  0  0  0  0  0  0  0  0  0  0  0
   16.8179    2.7604    6.7695 H   0  0  0  0  0  0  0  0  0  0  0  0
   16.4113    3.6200    8.2687 H   0  0  0  0  0  0  0  0  0  0  0  0
   17.6789    5.1270    6.8288 H   0  0  0  0  0  0  0  0  0  0  0  0
   16.0583    5.7226    7.0461 H   0  0  0  0  0  0  0  0  0  0  0  0
   17.2980    4.9473    3.2317 H   0  0  0  0  0  0  0  0  0  0  0  0
   18.0641    3.9493    4.4615 H   0  0  0  0  0  0  0  0  0  0  0  0
   18.9125    6.1455    5.5491 H   0  0  0  0  0  0  0  0  0  0  0  0
   18.1729    7.0251    4.2288 H   0  0  0  0  0  0  0  0  0  0  0  0
   18.8768    6.2931    1.7917 H   0  0  0  0  0  0  0  0  0  0  0  0
   20.8399    5.9004    0.4286 H   0  0  0  0  0  0  0  0  0  0  0  0
   24.1482    4.9683    1.9334 H   0  0  0  0  0  0  0  0  0  0  0  0
   25.3114    3.4467    0.7507 H   0  0  0  0  0  0  0  0  0  0  0  0
   27.6207    3.2072   -0.0397 H   0  0  0  0  0  0  0  0  0  0  0  0
   28.6218    4.4767   -3.5648 H   0  0  0  0  0  0  0  0  0  0  0  0
   26.6902    7.7957   -2.9293 H   0  0  0  0  0  0  0  0  0  0  0  0
   28.1403    6.0751   -6.7587 H   0  0  0  0  0  0  0  0  0  0  0  0
   28.5465    7.7562   -8.5089 H   0  0  0  0  0  0  0  0  0  0  0  0
   28.6291   10.1033   -9.2090 H   0  0  0  0  0  0  0  0  0  0  0  0
   28.3273   12.4920   -8.6934 H   0  0  0  0  0  0  0  0  0  0  0  0
   27.7854   13.1883   -6.3736 H   0  0  0  0  0  0  0  0  0  0  0  0
   27.5393   11.4962   -4.5880 H   0  0  0  0  0  0  0  0  0  0  0  0
   24.7934    6.8769   -1.8104 H   0  0  0  0  0  0  0  0  0  0  0  0
   23.1008    4.8944    3.9748 H   0  0  0  0  0  0  0  0  0  0  0  0
   21.1041    5.2628    5.3389 H   0  0  0  0  0  0  0  0  0  0  0  0
   15.7916    3.2305    4.1870 H   0  0  0  0  0  0  0  0  0  0  0  0
   14.8423    4.6563    3.7615 H   0  0  0  0  0  0  0  0  0  0  0  0
    3.3349   -1.1263   -0.4353 H   0  0  0  0  0  0  0  0  0  0  0  0
  1  2  1  0  0  0  0
  1 64  1  0  0  0  0
  1 65  1  0  0  0  0
  1 66  1  0  0  0  0
  2  3  1  0  0  0  0
  3  4  1  0  0  0  0
  3 67  1  0  0  0  0
  3 68  1  0  0  0  0
  4  5  1  0  0  0  0
  4 69  1  0  0  0  0
  4 70  1  0  0  0  0
  5  6  1  0  0  0  0
  6  7  1  0  0  0  0
  6 71  1  0  0  0  0
  6 72  1  0  0  0  0
  7  8  1  0  0  0  0
  7 73  1  0  0  0  0
  7 74  1  0  0  0  0
  8  9  1  0  0  0  0
  9 10  1  0  0  0  0
  9 75  1  0  0  0  0
  9 76  1  0  0  0  0
 10 11  1  0  0  0  0
 10 77  1  0  0  0  0
 10 78  1  0  0  0  0
 11 12  1  0  0  0  0
 12 13  1  0  0  0  0
 12 17  2  0  0  0  0
 13 14  2  0  0  0  0
 13 79  1  0  0  0  0
 14 15  1  0  0  0  0
 14 56  1  0  0  0  0
 15 16  2  0  0  0  0
 15 20  1  0  0  0  0
 16 17  1  0  0  0  0
 16 80  1  0  0  0  0
 17 18  1  0  0  0  0
 18 19  1  0  0  0  0
 19 81  1  0  0  0  0
 19 82  1  0  0  0  0
 19 83  1  0  0  0  0
 20 21  1  0  0  0  0
 20 84  1  0  0  0  0
 20 85  1  0  0  0  0
 21 22  1  0  0  0  0
 21 86  1  0  0  0  0
 21 87  1  0  0  0  0
 22 23  1  0  0  0  0
 22 56  1  0  0  0  0
 23 24  1  0  0  0  0
 23 88  1  0  0  0  0
 23 89  1  0  0  0  0
 24 25  1  0  0  0  0
 24 90  1  0  0  0  0
 24 91  1  0  0  0  0
 25 26  1  0  0  0  0
 25 55  2  0  0  0  0
 26 27  2  0  0  0  0
 26 92  1  0  0  0  0
 27 28  1  0  0  0  0
 27 93  1  0  0  0  0
 28 29  1  0  0  0  0
 28 54  2  0  0  0  0
 29 30  1  0  0  0  0
 29 94  1  0  0  0  0
 30 31  2  0  0  0  0
 30 32  1  0  0  0  0
 32 33  1  0  0  0  0
 32 53  2  0  0  0  0
 33 34  2  0  0  0  0
 33 95  1  0  0  0  0
 34 35  1  0  0  0  0
 34 96  1  0  0  0  0
 35 36  1  0  0  0  0
 35 39  2  0  0  0  0
 36 37  2  0  0  0  0
 36 38  1  0  0  0  0
 38 97  1  0  0  0  0
 39 40  1  0  0  0  0
 39 53  1  0  0  0  0
 40 41  1  0  0  0  0
 40 98  1  0  0  0  0
 41 42  2  0  0  0  0
 41 43  1  0  0  0  0
 43 44  1  0  0  0  0
 43 52  2  0  0  0  0
 44 45  2  0  0  0  0
 44 99  1  0  0  0  0
 45 46  1  0  0  0  0
 45100  1  0  0  0  0
 46 47  1  0  0  0  0
 46 51  2  0  0  0  0
 47 48  2  0  0  0  0
 47101  1  0  0  0  0
 48 49  1  0  0  0  0
 48102  1  0  0  0  0
 49 50  2  0  0  0  0
 49103  1  0  0  0  0
 50 51  1  0  0  0  0
 50104  1  0  0  0  0
 51 52  1  0  0  0  0
 53105  1  0  0  0  0
 54 55  1  0  0  0  0
 54106  1  0  0  0  0
 55107  1  0  0  0  0
 56108  1  0  0  0  0
 56109  1  0  0  0  0
 57 58  2  0  0  0  0
 58 59  1  0  0  0  0
 58 60  1  0  0  0  0
 59110  1  0  0  0  0
 60 61  1  0  0  0  0
 60 62  1  0  0  0  0
 60 63  1  0  0  0  0
M  END
>  <Energy>
317.282

$$$$