44565459
  -OEChem-03242010103D

 63 66  0     1  0  0  0  0  0999 V2000
    9.2273   -1.9851   -1.0506 O   0  0  0  0  0  0  0  0  0  0  0  0
   10.1384    0.5082   -0.2320 O   0  0  0  0  0  0  0  0  0  0  0  0
   -4.7889    1.4790   -0.4786 O   0  0  0  0  0  0  0  0  0  0  0  0
   -8.4414   -2.8298   -0.3830 O   0  5  0  0  0  0  0  0  0  0  0  0
   -8.8806   -1.8564    1.5350 O   0  0  0  0  0  0  0  0  0  0  0  0
    3.7629    0.3227    0.4538 N   0  0  2  0  0  0  0  0  0  0  0  0
   -4.0429   -0.4281    0.6597 N   0  0  0  0  0  0  0  0  0  0  0  0
   -6.2670   -0.2509    0.0617 N   0  0  0  0  0  0  0  0  0  0  0  0
   -8.6621   -1.8040    0.3022 N   0  3  0  0  0  0  0  0  0  0  0  0
    4.1017    1.7128    0.1249 C   0  0  0  0  0  0  0  0  0  0  0  0
    4.5753   -0.6042   -0.3542 C   0  0  0  0  0  0  0  0  0  0  0  0
    5.5423    2.0126    0.5516 C   0  0  0  0  0  0  0  0  0  0  0  0
    6.0570   -0.3117   -0.2910 C   0  0  0  0  0  0  0  0  0  0  0  0
    6.5180    0.9571    0.1002 C   0  0  0  0  0  0  0  0  0  0  0  0
    2.3385    0.0710    0.2387 C   0  0  0  0  0  0  0  0  0  0  0  0
    1.5061    0.6004    1.4068 C   0  0  0  0  0  0  0  0  0  0  0  0
    6.9796   -1.2896   -0.6867 C   0  0  0  0  0  0  0  0  0  0  0  0
    7.8943    1.2172    0.1256 C   0  0  0  0  0  0  0  0  0  0  0  0
    8.3476   -1.0180   -0.6672 C   0  0  0  0  0  0  0  0  0  0  0  0
    8.8044    0.2332   -0.2594 C   0  0  0  0  0  0  0  0  0  0  0  0
    0.0365    0.3275    1.2079 C   0  0  0  0  0  0  0  0  0  0  0  0
   -0.7638    1.2621    0.5506 C   0  0  0  0  0  0  0  0  0  0  0  0
   -0.5230   -0.8589    1.6822 C   0  0  0  0  0  0  0  0  0  0  0  0
   -2.1235    1.0103    0.3679 C   0  0  0  0  0  0  0  0  0  0  0  0
   -1.8827   -1.1107    1.4996 C   0  0  0  0  0  0  0  0  0  0  0  0
   -2.6830   -0.1761    0.8424 C   0  0  0  0  0  0  0  0  0  0  0  0
    9.5793   -2.0298   -2.4320 C   0  0  0  0  0  0  0  0  0  0  0  0
   10.8333    0.2256    0.9812 C   0  0  0  0  0  0  0  0  0  0  0  0
   -5.0149    0.3836    0.0256 C   0  0  0  0  0  0  0  0  0  0  0  0
   -7.4966    0.2187   -0.4576 C   0  0  0  0  0  0  0  0  0  0  0  0
   -8.6645   -0.5350   -0.3424 C   0  0  0  0  0  0  0  0  0  0  0  0
   -7.5268    1.4588   -1.0955 C   0  0  0  0  0  0  0  0  0  0  0  0
   -9.8627   -0.0487   -0.8654 C   0  0  0  0  0  0  0  0  0  0  0  0
   -8.7251    1.9450   -1.6185 C   0  0  0  0  0  0  0  0  0  0  0  0
   -9.8930    1.1914   -1.5034 C   0  0  0  0  0  0  0  0  0  0  0  0
    3.4523    2.4261    0.6430 H   0  0  0  0  0  0  0  0  0  0  0  0
    3.9834    1.8968   -0.9519 H   0  0  0  0  0  0  0  0  0  0  0  0
    4.4108   -1.6241    0.0157 H   0  0  0  0  0  0  0  0  0  0  0  0
    4.2691   -0.5705   -1.4086 H   0  0  0  0  0  0  0  0  0  0  0  0
    5.8354    2.9874    0.1438 H   0  0  0  0  0  0  0  0  0  0  0  0
    5.5935    2.0779    1.6460 H   0  0  0  0  0  0  0  0  0  0  0  0
    1.9959    0.4898   -0.7173 H   0  0  0  0  0  0  0  0  0  0  0  0
    2.1610   -1.0118    0.1758 H   0  0  0  0  0  0  0  0  0  0  0  0
    1.6413    1.6794    1.5453 H   0  0  0  0  0  0  0  0  0  0  0  0
    1.8366    0.1385    2.3468 H   0  0  0  0  0  0  0  0  0  0  0  0
    6.6287   -2.2667   -1.0108 H   0  0  0  0  0  0  0  0  0  0  0  0
    8.2564    2.1912    0.4466 H   0  0  0  0  0  0  0  0  0  0  0  0
   -0.3375    2.1888    0.1754 H   0  0  0  0  0  0  0  0  0  0  0  0
    0.0906   -1.5953    2.1943 H   0  0  0  0  0  0  0  0  0  0  0  0
   -2.6741    1.7823   -0.1503 H   0  0  0  0  0  0  0  0  0  0  0  0
   -2.3052   -2.0397    1.8741 H   0  0  0  0  0  0  0  0  0  0  0  0
    8.6945   -2.2221   -3.0471 H   0  0  0  0  0  0  0  0  0  0  0  0
   10.0545   -1.0928   -2.7392 H   0  0  0  0  0  0  0  0  0  0  0  0
   10.2911   -2.8469   -2.5778 H   0  0  0  0  0  0  0  0  0  0  0  0
   10.4262    0.8219    1.8040 H   0  0  0  0  0  0  0  0  0  0  0  0
   10.7705   -0.8403    1.2221 H   0  0  0  0  0  0  0  0  0  0  0  0
   11.8849    0.4914    0.8434 H   0  0  0  0  0  0  0  0  0  0  0  0
   -4.3766   -1.3134    1.0328 H   0  0  0  0  0  0  0  0  0  0  0  0
   -6.2934   -1.1589    0.5168 H   0  0  0  0  0  0  0  0  0  0  0  0
   -6.6750    2.1082   -1.2303 H   0  0  0  0  0  0  0  0  0  0  0  0
  -10.7814   -0.6247   -0.7837 H   0  0  0  0  0  0  0  0  0  0  0  0
   -8.7504    2.9105   -2.1157 H   0  0  0  0  0  0  0  0  0  0  0  0
  -10.8259    1.5700   -1.9106 H   0  0  0  0  0  0  0  0  0  0  0  0
  1 19  1  0  0  0  0
  1 27  1  0  0  0  0
  2 20  1  0  0  0  0
  2 28  1  0  0  0  0
  3 29  2  0  0  0  0
  4  9  1  0  0  0  0
  5  9  2  0  0  0  0
  6 10  1  0  0  0  0
  6 11  1  0  0  0  0
  6 15  1  0  0  0  0
  7 26  1  0  0  0  0
  7 29  1  0  0  0  0
  7 58  1  0  0  0  0
  8 29  1  0  0  0  0
  8 30  1  0  0  0  0
  8 59  1  0  0  0  0
  9 31  1  0  0  0  0
 10 12  1  0  0  0  0
 10 36  1  0  0  0  0
 10 37  1  0  0  0  0
 11 13  1  0  0  0  0
 11 38  1  0  0  0  0
 11 39  1  0  0  0  0
 12 14  1  0  0  0  0
 12 40  1  0  0  0  0
 12 41  1  0  0  0  0
 13 14  1  0  0  0  0
 13 17  2  0  0  0  0
 14 18  2  0  0  0  0
 15 16  1  0  0  0  0
 15 42  1  0  0  0  0
 15 43  1  0  0  0  0
 16 21  1  0  0  0  0
 16 44  1  0  0  0  0
 16 45  1  0  0  0  0
 17 19  1  0  0  0  0
 17 46  1  0  0  0  0
 18 20  1  0  0  0  0
 18 47  1  0  0  0  0
 19 20  2  0  0  0  0
 21 22  2  0  0  0  0
 21 23  1  0  0  0  0
 22 24  1  0  0  0  0
 22 48  1  0  0  0  0
 23 25  2  0  0  0  0
 23 49  1  0  0  0  0
 24 26  2  0  0  0  0
 24 50  1  0  0  0  0
 25 26  1  0  0  0  0
 25 51  1  0  0  0  0
 27 52  1  0  0  0  0
 27 53  1  0  0  0  0
 27 54  1  0  0  0  0
 28 55  1  0  0  0  0
 28 56  1  0  0  0  0
 28 57  1  0  0  0  0
 30 31  1  0  0  0  0
 30 32  2  0  0  0  0
 31 33  2  0  0  0  0
 32 34  1  0  0  0  0
 32 60  1  0  0  0  0
 33 35  1  0  0  0  0
 33 61  1  0  0  0  0
 34 35  2  0  0  0  0
 34 62  1  0  0  0  0
 35 63  1  0  0  0  0
M  CHG  2   4  -1   9   1
M  END
> <PUBCHEM_COMPOUND_CID>
44565459

> <PUBCHEM_CONFORMER_RMSD>
1

> <PUBCHEM_CONFORMER_DIVERSEORDER>
1
244
125
100
52
14
163
183
232
220
43
120
148
85
223
196
156
226
151
208
154
146
174
155
89
68
248
122
138
37
107
60
17
237
215
231
200
3
162
195
129
91
53
243
209
58
193
230
131
165
101
2
179
44
135
212
218
239
166
222
56
169
186
221
46
157
78
50
36
132
75
42
152
204
92
197
115
4
109
172
98
137
161
198
167
224
116
188
187
94
28
112
39
62
238
113
144
134
70
149
159
225
19
150
126
192
45
123
227
240
147
201
210
40
206
175
83
177
127
119
8
18
49
41
214
71
80
96
234
180
236
217
117
69
184
205
158
34
185
241
207
86
213
111
24
84
11
153
121
114
93
216
81
31
105
145
51
32
10
64
202
9
211
38
90
199
74
55
160
233
72
178
35
164
95
23
57
27
181
25
171
87
168
142
15
182
79
106
235
12
173
63
136
103
190
33
191
48
247
5
104
139
176
124
245
26
133
82
170
130
7
194
242
189
118
141
20
219
22
61
73
203
140
102
110
65
246
99
143
13
16
6
30
76
88
21
229
29
67
97
108
47
59
128
228
54
66
77

> <PUBCHEM_MMFF94_PARTIAL_CHARGES>
47
1 -0.36
10 0.27
11 0.41
12 0.14
13 -0.14
14 -0.14
15 0.27
16 0.14
17 -0.15
18 -0.15
19 0.08
2 -0.36
20 0.08
21 -0.14
22 -0.15
23 -0.15
24 -0.15
25 -0.15
26 0.12
27 0.28
28 0.28
29 0.69
3 -0.57
30 0.12
31 0.13
32 -0.15
33 -0.15
34 -0.15
35 -0.15
4 -0.52
46 0.15
47 0.15
48 0.15
49 0.15
5 -0.52
50 0.15
51 0.15
58 0.37
59 0.37
6 -0.81
60 0.15
61 0.15
62 0.15
63 0.15
7 -0.55
8 -0.55
9 0.91

> <PUBCHEM_EFFECTIVE_ROTOR_COUNT>
10.8

> <PUBCHEM_PHARMACOPHORE_FEATURES>
13
1 1 acceptor
1 2 acceptor
1 3 acceptor
1 4 acceptor
1 4 anion
1 5 acceptor
1 6 cation
1 7 donor
1 8 donor
6 13 14 17 18 19 20 rings
6 21 22 23 24 25 26 rings
6 30 31 32 33 34 35 rings
6 6 10 11 12 13 14 rings

> <PUBCHEM_HEAVY_ATOM_COUNT>
35

> <PUBCHEM_ATOM_DEF_STEREO_COUNT>
0

> <PUBCHEM_ATOM_UDEF_STEREO_COUNT>
0

> <PUBCHEM_BOND_DEF_STEREO_COUNT>
0

> <PUBCHEM_BOND_UDEF_STEREO_COUNT>
0

> <PUBCHEM_ISOTOPIC_ATOM_COUNT>
0

> <PUBCHEM_COMPONENT_COUNT>
1

> <PUBCHEM_CACTVS_TAUTO_COUNT>
3

> <PUBCHEM_CONFORMER_ID>
02A803D300000001

> <PUBCHEM_MMFF94_ENERGY>
129.9785

> <PUBCHEM_FEATURE_SELFOVERLAP>
66.128

> <PUBCHEM_SHAPE_FINGERPRINT>
10 15 11891332041731125073
10054150 59 16816599056065279731
10162869 55 17846498141315545360
10168742 298 18410586067765439550
106641 1 9799689307407495921
10669705 176 18408039611746213377
11061554 47 17458056075905656284
11135609 127 17749678502096756636
11409948 41 17845375458418887902
11534866 41 13182742525199396596
11966995 16 18261680286495683918
11966995 178 7925915894732338776
11973863 73 15626232282391576863
12082328 90 18131633353369586001
12089408 11 16773802484795312544
12539745 222 15554451760835706539
12664476 115 17240479208953033212
13947947 19 16153716440022982927
13974486 7 10302082589897375157
14117953 113 17894916226428770764
14251764 46 16805039618493038025
14344974 52 18187082896640712921
14428016 248 14996285803760274125
14617042 71 11530776911870614310
150020 25 18408885148529523731
15065858 18 18412543206751529902
15198563 99 18262238815720443517
15247644 1 16487255469588421822
15461852 350 17967816068074972139
15510794 2 18411138047517258906
155225 1 16226045570763152517
15706992 2 14057011481440895813
1577012 14 17385994058678361473
15773216 30 17823129030436687218
16728433 110 17274815878840748376
16992610 120 17022908934285099251
1754911 235 18186235135211737693
1818759 1 16989130854911345318
20105231 36 18272652394496378147
212700 22 17988924445076875974
21362267 20 17274815891953095623
21792961 116 17988924453650388265
21792965 169 18339658796854777036
21895431 317 17986957354777959038
22149856 69 9079107866140279464
22164985 6 16917340459199877589
232437 2 16702301247746030733
23576562 1 17823698754153965269
24771293 8 16298382436528055455
3092352 35 15140680289127440873
3711267 37 13118286944853153886
395649 100 17240484732924313811
3991529 128 14057009295012301175
4625314 4 18338516442684811753
4874694 18 18413388740369488442
5028188 123 18187361048372767023
5219985 9 15841834460624761297
57303763 39 12031487939949113020
5937810 71 18336825274751230709
59682541 35 10231752292820154693
6081469 158 18342175562043808956
6201320 82 16734373917205578125
636775 8 17531533183411953123
6691757 9 14634876349650165665
67123 10 18410855468786856588
9937071 3 17847062173379257102
9953998 17 9151164346980272857
9962374 69 14333115399384046761

> <PUBCHEM_SHAPE_MULTIPOLES>
671.01
46.31
1.97
1.47
4.82
0.57
-0.22
8.62
-19.1
0.89
-0.41
0.17
0.39
4.91

> <PUBCHEM_SHAPE_SELFOVERLAP>
1440.769

> <PUBCHEM_SHAPE_VOLUME>
369.8

> <PUBCHEM_COORDINATE_TYPE>
2
5
10

$$$$