24882446
  -OEChem-03242010103D

 64 68  0     1  0  0  0  0  0999 V2000
    9.1799    2.4429    0.2125 O   0  0  0  0  0  0  0  0  0  0  0  0
   10.2801   -0.0977   -0.0165 O   0  0  0  0  0  0  0  0  0  0  0  0
   -4.5273    1.1796   -1.3267 O   0  0  0  0  0  0  0  0  0  0  0  0
    3.8866   -0.6056   -0.1578 N   0  0  2  0  0  0  0  0  0  0  0  0
   -3.9516   -0.5574    0.1496 N   0  0  0  0  0  0  0  0  0  0  0  0
   -7.8351   -0.2515    1.7049 N   0  0  0  0  0  0  0  0  0  0  0  0
    4.3833   -1.8283    0.4852 C   0  0  0  0  0  0  0  0  0  0  0  0
    4.6536    0.5628    0.3096 C   0  0  0  0  0  0  0  0  0  0  0  0
    5.8156   -2.1149    0.0230 C   0  0  0  0  0  0  0  0  0  0  0  0
    6.1498    0.3826    0.1917 C   0  0  0  0  0  0  0  0  0  0  0  0
    6.7084   -0.9038    0.0998 C   0  0  0  0  0  0  0  0  0  0  0  0
    2.4612   -0.4198    0.1114 C   0  0  0  0  0  0  0  0  0  0  0  0
    1.6114   -1.3028   -0.8028 C   0  0  0  0  0  0  0  0  0  0  0  0
    6.9939    1.5001    0.2398 C   0  0  0  0  0  0  0  0  0  0  0  0
    8.0993   -1.0514    0.0199 C   0  0  0  0  0  0  0  0  0  0  0  0
    8.3780    1.3423    0.1696 C   0  0  0  0  0  0  0  0  0  0  0  0
    8.9298    0.0682    0.0574 C   0  0  0  0  0  0  0  0  0  0  0  0
    0.1381   -1.1044   -0.5506 C   0  0  0  0  0  0  0  0  0  0  0  0
   -0.5196   -1.8929    0.3936 C   0  0  0  0  0  0  0  0  0  0  0  0
   -0.5674   -0.1334   -1.2613 C   0  0  0  0  0  0  0  0  0  0  0  0
   -1.8827   -1.7106    0.6269 C   0  0  0  0  0  0  0  0  0  0  0  0
   -1.9304    0.0490   -1.0281 C   0  0  0  0  0  0  0  0  0  0  0  0
   -2.5880   -0.7396   -0.0841 C   0  0  0  0  0  0  0  0  0  0  0  0
    9.6145    2.8781    1.4993 C   0  0  0  0  0  0  0  0  0  0  0  0
   10.8635   -0.0907   -1.3178 C   0  0  0  0  0  0  0  0  0  0  0  0
   -4.8167    0.3593   -0.4622 C   0  0  0  0  0  0  0  0  0  0  0  0
   -6.2334    0.2928   -0.0172 C   0  0  0  0  0  0  0  0  0  0  0  0
   -7.2688    0.6905   -0.8510 C   0  0  0  0  0  0  0  0  0  0  0  0
   -8.5968    0.6192   -0.4090 C   0  0  0  0  0  0  0  0  0  0  0  0
   -8.8379    0.1352    0.8938 C   0  0  0  0  0  0  0  0  0  0  0  0
   -6.5676   -0.1664    1.2405 C   0  0  0  0  0  0  0  0  0  0  0  0
   -9.6674    1.0145   -1.2286 C   0  0  0  0  0  0  0  0  0  0  0  0
  -10.1572    0.0641    1.3322 C   0  0  0  0  0  0  0  0  0  0  0  0
  -10.9771    0.9330   -0.7645 C   0  0  0  0  0  0  0  0  0  0  0  0
  -11.2219    0.4569    0.5175 C   0  0  0  0  0  0  0  0  0  0  0  0
    3.7758   -2.7022    0.2276 H   0  0  0  0  0  0  0  0  0  0  0  0
    4.3546   -1.7307    1.5793 H   0  0  0  0  0  0  0  0  0  0  0  0
    4.4219    0.7841    1.3602 H   0  0  0  0  0  0  0  0  0  0  0  0
    4.3643    1.4328   -0.2934 H   0  0  0  0  0  0  0  0  0  0  0  0
    6.2306   -2.9214    0.6393 H   0  0  0  0  0  0  0  0  0  0  0  0
    5.8013   -2.4621   -1.0181 H   0  0  0  0  0  0  0  0  0  0  0  0
    2.2253   -0.5976    1.1694 H   0  0  0  0  0  0  0  0  0  0  0  0
    2.1810    0.6236   -0.0902 H   0  0  0  0  0  0  0  0  0  0  0  0
    1.8321   -1.0802   -1.8554 H   0  0  0  0  0  0  0  0  0  0  0  0
    1.8443   -2.3659   -0.6714 H   0  0  0  0  0  0  0  0  0  0  0  0
    6.5692    2.4971    0.3322 H   0  0  0  0  0  0  0  0  0  0  0  0
    8.5350   -2.0438   -0.0711 H   0  0  0  0  0  0  0  0  0  0  0  0
    0.0198   -2.6512    0.9550 H   0  0  0  0  0  0  0  0  0  0  0  0
   -0.0643    0.4876   -1.9980 H   0  0  0  0  0  0  0  0  0  0  0  0
   -2.3819   -2.3319    1.3661 H   0  0  0  0  0  0  0  0  0  0  0  0
   -2.4055    0.8204   -1.6175 H   0  0  0  0  0  0  0  0  0  0  0  0
   10.2492    3.7585    1.3668 H   0  0  0  0  0  0  0  0  0  0  0  0
   10.1996    2.0960    1.9934 H   0  0  0  0  0  0  0  0  0  0  0  0
    8.7567    3.1551    2.1203 H   0  0  0  0  0  0  0  0  0  0  0  0
   10.6794    0.8655   -1.8177 H   0  0  0  0  0  0  0  0  0  0  0  0
   11.9431   -0.2266   -1.2100 H   0  0  0  0  0  0  0  0  0  0  0  0
   10.4655   -0.9131   -1.9209 H   0  0  0  0  0  0  0  0  0  0  0  0
   -4.3437   -1.2069    0.8256 H   0  0  0  0  0  0  0  0  0  0  0  0
   -7.0538    1.0555   -1.8535 H   0  0  0  0  0  0  0  0  0  0  0  0
   -5.8281   -0.4669    1.9749 H   0  0  0  0  0  0  0  0  0  0  0  0
   -9.4870    1.3884   -2.2341 H   0  0  0  0  0  0  0  0  0  0  0  0
  -10.3756   -0.3052    2.3327 H   0  0  0  0  0  0  0  0  0  0  0  0
  -11.8018    1.2393   -1.4006 H   0  0  0  0  0  0  0  0  0  0  0  0
  -12.2408    0.3897    0.8878 H   0  0  0  0  0  0  0  0  0  0  0  0
  1 16  1  0  0  0  0
  1 24  1  0  0  0  0
  2 17  1  0  0  0  0
  2 25  1  0  0  0  0
  3 26  2  0  0  0  0
  4  7  1  0  0  0  0
  4  8  1  0  0  0  0
  4 12  1  0  0  0  0
  5 23  1  0  0  0  0
  5 26  1  0  0  0  0
  5 58  1  0  0  0  0
  6 30  1  0  0  0  0
  6 31  2  0  0  0  0
  7  9  1  0  0  0  0
  7 36  1  0  0  0  0
  7 37  1  0  0  0  0
  8 10  1  0  0  0  0
  8 38  1  0  0  0  0
  8 39  1  0  0  0  0
  9 11  1  0  0  0  0
  9 40  1  0  0  0  0
  9 41  1  0  0  0  0
 10 11  1  0  0  0  0
 10 14  2  0  0  0  0
 11 15  2  0  0  0  0
 12 13  1  0  0  0  0
 12 42  1  0  0  0  0
 12 43  1  0  0  0  0
 13 18  1  0  0  0  0
 13 44  1  0  0  0  0
 13 45  1  0  0  0  0
 14 16  1  0  0  0  0
 14 46  1  0  0  0  0
 15 17  1  0  0  0  0
 15 47  1  0  0  0  0
 16 17  2  0  0  0  0
 18 19  2  0  0  0  0
 18 20  1  0  0  0  0
 19 21  1  0  0  0  0
 19 48  1  0  0  0  0
 20 22  2  0  0  0  0
 20 49  1  0  0  0  0
 21 23  2  0  0  0  0
 21 50  1  0  0  0  0
 22 23  1  0  0  0  0
 22 51  1  0  0  0  0
 24 52  1  0  0  0  0
 24 53  1  0  0  0  0
 24 54  1  0  0  0  0
 25 55  1  0  0  0  0
 25 56  1  0  0  0  0
 25 57  1  0  0  0  0
 26 27  1  0  0  0  0
 27 28  2  0  0  0  0
 27 31  1  0  0  0  0
 28 29  1  0  0  0  0
 28 59  1  0  0  0  0
 29 30  1  0  0  0  0
 29 32  2  0  0  0  0
 30 33  2  0  0  0  0
 31 60  1  0  0  0  0
 32 34  1  0  0  0  0
 32 61  1  0  0  0  0
 33 35  1  0  0  0  0
 33 62  1  0  0  0  0
 34 35  2  0  0  0  0
 34 63  1  0  0  0  0
 35 64  1  0  0  0  0
M  END
> <PUBCHEM_COMPOUND_CID>
24882446

> <PUBCHEM_CONFORMER_RMSD>
1

> <PUBCHEM_CONFORMER_DIVERSEORDER>
1
115
12
22
76
99
110
113
52
87
7
33
71
117
11
72
114
49
97
4
17
86
35
112
73
42
82
98
108
89
3
85
94
27
53
66
109
63
90
95
84
46
28
105
91
101
106
45
21
103
44
25
6
20
8
104
13
5
67
37
111
38
107
15
78
19
57
58
40
102
79
2
116
51
83
80
96
61
10
93
41
18
75
50
92
59
16
48
26
81
69
56
70
88
9
100
77
55
24
60
65
43
34
23
74
32
47
31
68
64
36
39
54
14
62
30
29

> <PUBCHEM_MMFF94_PARTIAL_CHARGES>
47
1 -0.36
10 -0.14
11 -0.14
12 0.27
13 0.14
14 -0.15
15 -0.15
16 0.08
17 0.08
18 -0.14
19 -0.15
2 -0.36
20 -0.15
21 -0.15
22 -0.15
23 0.12
24 0.28
25 0.28
26 0.54
27 0.09
28 -0.15
3 -0.57
30 0.31
31 0.16
32 -0.15
33 -0.15
34 -0.15
35 -0.15
4 -0.81
46 0.15
47 0.15
48 0.15
49 0.15
5 -0.55
50 0.15
51 0.15
58 0.37
59 0.15
6 -0.62
60 0.15
61 0.15
62 0.15
63 0.15
64 0.15
7 0.27
8 0.41
9 0.14

> <PUBCHEM_EFFECTIVE_ROTOR_COUNT>
8.8

> <PUBCHEM_PHARMACOPHORE_FEATURES>
11
1 1 acceptor
1 2 acceptor
1 3 acceptor
1 4 cation
1 5 donor
1 6 acceptor
6 10 11 14 15 16 17 rings
6 18 19 20 21 22 23 rings
6 29 30 32 33 34 35 rings
6 4 7 8 9 10 11 rings
6 6 27 28 29 30 31 rings

> <PUBCHEM_HEAVY_ATOM_COUNT>
35

> <PUBCHEM_ATOM_DEF_STEREO_COUNT>
0

> <PUBCHEM_ATOM_UDEF_STEREO_COUNT>
0

> <PUBCHEM_BOND_DEF_STEREO_COUNT>
0

> <PUBCHEM_BOND_UDEF_STEREO_COUNT>
0

> <PUBCHEM_ISOTOPIC_ATOM_COUNT>
0

> <PUBCHEM_COMPONENT_COUNT>
1

> <PUBCHEM_CACTVS_TAUTO_COUNT>
2

> <PUBCHEM_CONFORMER_ID>
017BAD0E00000001

> <PUBCHEM_MMFF94_ENERGY>
126.3088

> <PUBCHEM_FEATURE_SELFOVERLAP>
55.881

> <PUBCHEM_SHAPE_FINGERPRINT>
10 15 18040714762026506811
10076449 9 12967129407304590867
106641 1 17676207970459000567
10674148 151 15357701898992804289
11061554 47 17967811605657245605
11211813 74 18131066074595500544
11409948 35 18339080373141945358
11534866 41 16081082667986095032
11966995 178 18410296900834272542
12089408 11 17775279465321204255
12498461 61 14562825374431115113
12522641 33 17846499214440815175
12664476 115 18130784555566674145
12741549 16 13984661452018619287
13740195 50 18113618993477379841
14117953 113 13758074108450235064
14251764 46 18410575076078432079
14344974 52 18272085032999308783
14428016 248 17704073993274655633
15065858 18 18113616756195408167
15219723 13 15864342516903892770
15510794 2 17676206840561127947
155225 1 18202282515281342104
15773216 30 14476695056635917332
16087824 20 18411982491099532964
16728433 110 18408040711094739741
16992610 120 16343704348173203997
1754911 235 16845570924966648561
19302320 297 17967810605315220948
19315958 150 18408324371925363494
19841028 212 15936682658225648739
2026 5 8069767190874147992
20501277 279 18259704492856676194
21102433 48 13190342387993278833
21362267 2 18341035398303403392
21362267 313 16298936546615874545
21792934 111 17676207970042243892
21895431 317 9582976648823392876
232437 2 8286199453198962705
23576562 1 16199290161416841945
249057 3 14764619829285521499
3092352 35 17275383196886679495
44389302 135 14345787249878531640
4874694 18 17312822667999456291
59521099 67 11671772789785631930
59682541 35 18040437685729095499
6126387 218 17749108869073573053
6201320 215 12324506616758381959
636775 8 15554438636217412109
67123 10 18410854356996968951
9663363 56 10952047845814813542
9937071 3 8718827596194304332
9953998 17 18113621205554790667

> <PUBCHEM_SHAPE_MULTIPOLES>
687.73
49.34
1.85
1.19
16.63
0.44
-0.05
22.78
-3.94
-5.29
-0.42
1.55
0.21
2.35

> <PUBCHEM_SHAPE_SELFOVERLAP>
1504.607

> <PUBCHEM_SHAPE_VOLUME>
371.9

> <PUBCHEM_COORDINATE_TYPE>
2
5
10

$$$$