44565479
  -OEChem-03242010103D

 63 66  0     1  0  0  0  0  0999 V2000
    9.4610   -2.2331   -0.4833 O   0  0  0  0  0  0  0  0  0  0  0  0
   10.3637    0.3940   -0.4842 O   0  0  0  0  0  0  0  0  0  0  0  0
   -4.5743    1.1944   -0.6884 O   0  0  0  0  0  0  0  0  0  0  0  0
  -11.8946   -0.8736   -0.6027 O   0  5  0  0  0  0  0  0  0  0  0  0
  -10.7041   -2.0199    0.8422 O   0  0  0  0  0  0  0  0  0  0  0  0
    4.0052    0.4057    0.3648 N   0  0  2  0  0  0  0  0  0  0  0  0
   -3.7873   -0.2720    0.9606 N   0  0  0  0  0  0  0  0  0  0  0  0
   -6.0244   -0.2930    0.3858 N   0  0  0  0  0  0  0  0  0  0  0  0
  -10.8013   -1.1412   -0.0481 N   0  3  0  0  0  0  0  0  0  0  0  0
    4.3238    1.6303   -0.3796 C   0  0  0  0  0  0  0  0  0  0  0  0
    4.8104   -0.7208   -0.1396 C   0  0  0  0  0  0  0  0  0  0  0  0
    5.7696    2.0506   -0.0963 C   0  0  0  0  0  0  0  0  0  0  0  0
    6.2902   -0.4182   -0.2011 C   0  0  0  0  0  0  0  0  0  0  0  0
    6.7464    0.9110   -0.2256 C   0  0  0  0  0  0  0  0  0  0  0  0
    2.5793    0.0957    0.2679 C   0  0  0  0  0  0  0  0  0  0  0  0
    1.7651    0.9536    1.2368 C   0  0  0  0  0  0  0  0  0  0  0  0
    7.2142   -1.4671   -0.2998 C   0  0  0  0  0  0  0  0  0  0  0  0
    8.1203    1.1709   -0.3108 C   0  0  0  0  0  0  0  0  0  0  0  0
    8.5796   -1.1981   -0.3940 C   0  0  0  0  0  0  0  0  0  0  0  0
    9.0322    0.1194   -0.3972 C   0  0  0  0  0  0  0  0  0  0  0  0
    0.2946    0.6282    1.1629 C   0  0  0  0  0  0  0  0  0  0  0  0
   -0.5277    1.3150    0.2696 C   0  0  0  0  0  0  0  0  0  0  0  0
   -0.2437   -0.3588    1.9885 C   0  0  0  0  0  0  0  0  0  0  0  0
   -1.8882    1.0151    0.2021 C   0  0  0  0  0  0  0  0  0  0  0  0
   -1.6042   -0.6588    1.9211 C   0  0  0  0  0  0  0  0  0  0  0  0
   -2.4265    0.0282    1.0280 C   0  0  0  0  0  0  0  0  0  0  0  0
    9.7860   -2.6960   -1.7927 C   0  0  0  0  0  0  0  0  0  0  0  0
   11.0853    0.4973    0.7419 C   0  0  0  0  0  0  0  0  0  0  0  0
   -4.7796    0.3043    0.1306 C   0  0  0  0  0  0  0  0  0  0  0  0
   -7.2686   -0.0082   -0.2249 C   0  0  0  0  0  0  0  0  0  0  0  0
   -8.4114   -0.7086    0.1612 C   0  0  0  0  0  0  0  0  0  0  0  0
   -7.3523    0.9732   -1.2126 C   0  0  0  0  0  0  0  0  0  0  0  0
   -9.6380   -0.4275   -0.4405 C   0  0  0  0  0  0  0  0  0  0  0  0
   -8.5789    1.2542   -1.8143 C   0  0  0  0  0  0  0  0  0  0  0  0
   -9.7217    0.5537   -1.4283 C   0  0  0  0  0  0  0  0  0  0  0  0
    4.1823    1.4766   -1.4584 H   0  0  0  0  0  0  0  0  0  0  0  0
    3.6778    2.4656   -0.0897 H   0  0  0  0  0  0  0  0  0  0  0  0
    4.6633   -1.5798    0.5272 H   0  0  0  0  0  0  0  0  0  0  0  0
    4.4831   -1.0114   -1.1471 H   0  0  0  0  0  0  0  0  0  0  0  0
    6.0449    2.8556   -0.7882 H   0  0  0  0  0  0  0  0  0  0  0  0
    5.8417    2.4469    0.9246 H   0  0  0  0  0  0  0  0  0  0  0  0
    2.4112   -0.9552    0.5421 H   0  0  0  0  0  0  0  0  0  0  0  0
    2.2138    0.2018   -0.7625 H   0  0  0  0  0  0  0  0  0  0  0  0
    2.1188    0.8015    2.2655 H   0  0  0  0  0  0  0  0  0  0  0  0
    1.8925    2.0238    1.0368 H   0  0  0  0  0  0  0  0  0  0  0  0
    6.8666   -2.4977   -0.3027 H   0  0  0  0  0  0  0  0  0  0  0  0
    8.4791    2.1977   -0.3101 H   0  0  0  0  0  0  0  0  0  0  0  0
   -0.1180    2.0845   -0.3796 H   0  0  0  0  0  0  0  0  0  0  0  0
    0.3871   -0.9019    2.6872 H   0  0  0  0  0  0  0  0  0  0  0  0
   -2.4565    1.5903   -0.5146 H   0  0  0  0  0  0  0  0  0  0  0  0
   -2.0102   -1.4306    2.5703 H   0  0  0  0  0  0  0  0  0  0  0  0
   10.5027   -3.5163   -1.6979 H   0  0  0  0  0  0  0  0  0  0  0  0
   10.2457   -1.8958   -2.3813 H   0  0  0  0  0  0  0  0  0  0  0  0
    8.8911   -3.0697   -2.3003 H   0  0  0  0  0  0  0  0  0  0  0  0
   12.1313    0.7119    0.5066 H   0  0  0  0  0  0  0  0  0  0  0  0
   11.0376   -0.4445    1.2977 H   0  0  0  0  0  0  0  0  0  0  0  0
   10.6888    1.3148    1.3523 H   0  0  0  0  0  0  0  0  0  0  0  0
   -4.1053   -1.0023    1.5929 H   0  0  0  0  0  0  0  0  0  0  0  0
   -6.0440   -1.0206    1.0959 H   0  0  0  0  0  0  0  0  0  0  0  0
   -8.3223   -1.4696    0.9335 H   0  0  0  0  0  0  0  0  0  0  0  0
   -6.5155    1.5580   -1.5663 H   0  0  0  0  0  0  0  0  0  0  0  0
   -8.6451    2.0183   -2.5836 H   0  0  0  0  0  0  0  0  0  0  0  0
  -10.6601    0.7993   -1.9190 H   0  0  0  0  0  0  0  0  0  0  0  0
  1 19  1  0  0  0  0
  1 27  1  0  0  0  0
  2 20  1  0  0  0  0
  2 28  1  0  0  0  0
  3 29  2  0  0  0  0
  4  9  1  0  0  0  0
  5  9  2  0  0  0  0
  6 10  1  0  0  0  0
  6 11  1  0  0  0  0
  6 15  1  0  0  0  0
  7 26  1  0  0  0  0
  7 29  1  0  0  0  0
  7 58  1  0  0  0  0
  8 29  1  0  0  0  0
  8 30  1  0  0  0  0
  8 59  1  0  0  0  0
  9 33  1  0  0  0  0
 10 12  1  0  0  0  0
 10 36  1  0  0  0  0
 10 37  1  0  0  0  0
 11 13  1  0  0  0  0
 11 38  1  0  0  0  0
 11 39  1  0  0  0  0
 12 14  1  0  0  0  0
 12 40  1  0  0  0  0
 12 41  1  0  0  0  0
 13 14  1  0  0  0  0
 13 17  2  0  0  0  0
 14 18  2  0  0  0  0
 15 16  1  0  0  0  0
 15 42  1  0  0  0  0
 15 43  1  0  0  0  0
 16 21  1  0  0  0  0
 16 44  1  0  0  0  0
 16 45  1  0  0  0  0
 17 19  1  0  0  0  0
 17 46  1  0  0  0  0
 18 20  1  0  0  0  0
 18 47  1  0  0  0  0
 19 20  2  0  0  0  0
 21 22  2  0  0  0  0
 21 23  1  0  0  0  0
 22 24  1  0  0  0  0
 22 48  1  0  0  0  0
 23 25  2  0  0  0  0
 23 49  1  0  0  0  0
 24 26  2  0  0  0  0
 24 50  1  0  0  0  0
 25 26  1  0  0  0  0
 25 51  1  0  0  0  0
 27 52  1  0  0  0  0
 27 53  1  0  0  0  0
 27 54  1  0  0  0  0
 28 55  1  0  0  0  0
 28 56  1  0  0  0  0
 28 57  1  0  0  0  0
 30 31  2  0  0  0  0
 30 32  1  0  0  0  0
 31 33  1  0  0  0  0
 31 60  1  0  0  0  0
 32 34  2  0  0  0  0
 32 61  1  0  0  0  0
 33 35  2  0  0  0  0
 34 35  1  0  0  0  0
 34 62  1  0  0  0  0
 35 63  1  0  0  0  0
M  CHG  2   4  -1   9   1
M  END
> <PUBCHEM_COMPOUND_CID>
44565479

> <PUBCHEM_CONFORMER_RMSD>
1.2

> <PUBCHEM_CONFORMER_DIVERSEORDER>
1
160
187
153
120
119
7
65
56
111
131
51
76
156
104
151
66
126
46
190
57
148
158
14
64
152
144
102
63
34
86
145
43
62
68
146
54
114
143
75
39
109
30
84
186
48
183
73
2
55
59
165
159
94
98
79
87
139
60
137
92
10
140
49
116
123
8
132
168
105
191
118
85
70
115
128
38
174
162
166
42
82
107
96
90
113
192
91
193
103
58
130
155
78
175
112
52
80
32
129
133
53
142
40
117
100
88
99
9
108
47
172
12
163
71
169
17
121
97
173
81
181
89
29
72
127
41
154
28
122
138
101
26
106
136
93
77
184
6
164
36
178
149
33
170
125
177
157
67
16
61
150
176
27
37
135
83
161
21
134
18
179
31
95
3
147
167
74
171
180
25
45
110
185
50
141
124
23
188
13
19
182
69
44
189
22
35
4
24
5
15
11
20

> <PUBCHEM_MMFF94_PARTIAL_CHARGES>
47
1 -0.36
10 0.27
11 0.41
12 0.14
13 -0.14
14 -0.14
15 0.27
16 0.14
17 -0.15
18 -0.15
19 0.08
2 -0.36
20 0.08
21 -0.14
22 -0.15
23 -0.15
24 -0.15
25 -0.15
26 0.12
27 0.28
28 0.28
29 0.69
3 -0.57
30 0.12
31 -0.15
32 -0.15
33 0.13
34 -0.15
35 -0.15
4 -0.52
46 0.15
47 0.15
48 0.15
49 0.15
5 -0.52
50 0.15
51 0.15
58 0.37
59 0.37
6 -0.81
60 0.15
61 0.15
62 0.15
63 0.15
7 -0.55
8 -0.55
9 0.91

> <PUBCHEM_EFFECTIVE_ROTOR_COUNT>
10.8

> <PUBCHEM_PHARMACOPHORE_FEATURES>
13
1 1 acceptor
1 2 acceptor
1 3 acceptor
1 4 acceptor
1 4 anion
1 5 acceptor
1 6 cation
1 7 donor
1 8 donor
6 13 14 17 18 19 20 rings
6 21 22 23 24 25 26 rings
6 30 31 32 33 34 35 rings
6 6 10 11 12 13 14 rings

> <PUBCHEM_HEAVY_ATOM_COUNT>
35

> <PUBCHEM_ATOM_DEF_STEREO_COUNT>
0

> <PUBCHEM_ATOM_UDEF_STEREO_COUNT>
0

> <PUBCHEM_BOND_DEF_STEREO_COUNT>
0

> <PUBCHEM_BOND_UDEF_STEREO_COUNT>
0

> <PUBCHEM_ISOTOPIC_ATOM_COUNT>
0

> <PUBCHEM_COMPONENT_COUNT>
1

> <PUBCHEM_CACTVS_TAUTO_COUNT>
3

> <PUBCHEM_CONFORMER_ID>
02A803E700000001

> <PUBCHEM_MMFF94_ENERGY>
126.3407

> <PUBCHEM_FEATURE_SELFOVERLAP>
66.129

> <PUBCHEM_SHAPE_FINGERPRINT>
10162869 55 18131070438039432952
10533779 47 10880000176486535972
106641 1 11239997858394521945
11061554 47 16877654682127665804
11408170 108 17417819400294101142
11409948 41 18200032829610282454
11534866 41 14333412230045033044
12089408 11 17560807606642688200
12522641 33 14562527375343651369
12539745 222 16702306715825098345
12664476 115 13912321295991690551
131240 100 18188491388521647153
13553643 46 10737278036254375615
13740195 50 9655576310060457567
14117953 113 17312827074144752044
14150022 121 9511192845654090035
14251764 46 17676486155042402033
14344974 52 17895194445340281153
14428016 248 13767930109048403631
150020 25 18186522115619110224
15065858 18 18412541007169378196
15198563 99 17895195446195068196
15247644 1 17489590060441485494
15510794 2 18334016107543978715
155225 1 13406795523395298375
15706992 2 13118290235145592209
15773216 30 17459179694784061978
16728433 110 17846774135502874312
16992610 120 16298391249057363003
1754911 235 17894345584373336973
1818759 1 16702021989589493471
20105231 36 18202282546633301991
20501277 279 11240003355799862068
21102433 48 17131830962700620343
21362267 20 17917144018359270303
21792961 116 18410858768371227801
22149856 69 10231748995234635728
22164985 6 17560794468037334965
232437 2 18131070437574994783
23576562 1 17459193057302089541
24771293 8 15647048232549968551
335352 9 16950284013653360437
395649 100 16009031722942624195
3991529 128 13262685815718674919
44389302 135 15051735261538244150
4874694 18 18335421271311126906
54039377 194 17846497037461652737
57303763 39 13110665204023418524
5937810 71 18187641342318763893
59521099 67 18201438121276896784
59682541 35 11743835867672829988
6081469 158 18408323281187864676
636775 8 17676491684095017211
6673363 416 17603302645052328541
67123 10 18186518817754146109
9937071 3 17703792509323245886
9962374 69 15123498237941934840

> <PUBCHEM_SHAPE_MULTIPOLES>
671.01
50.04
1.77
1.38
35.97
0.62
0.14
18.07
-18.3
-3.21
-0.51
1.24
0.14
3.14

> <PUBCHEM_SHAPE_SELFOVERLAP>
1440.954

> <PUBCHEM_SHAPE_VOLUME>
370.2

> <PUBCHEM_COORDINATE_TYPE>
2
5
10

$$$$