44451617
  -OEChem-03242010103D

 64 68  0     1  0  0  0  0  0999 V2000
    9.1209   -1.8816    1.6532 O   0  0  0  0  0  0  0  0  0  0  0  0
   10.1661    0.3484    0.3683 O   0  0  0  0  0  0  0  0  0  0  0  0
   -4.5247   -2.0389   -1.2125 O   0  0  0  0  0  0  0  0  0  0  0  0
    3.7985    0.3267   -0.4057 N   0  0  1  0  0  0  0  0  0  0  0  0
   -4.0423    0.1648   -0.5495 N   0  0  0  0  0  0  0  0  0  0  0  0
  -10.3229   -0.2594    0.5420 N   0  0  0  0  0  0  0  0  0  0  0  0
    4.2025    1.7373   -0.3575 C   0  0  0  0  0  0  0  0  0  0  0  0
    4.5530   -0.4531    0.5914 C   0  0  0  0  0  0  0  0  0  0  0  0
    5.6615    1.8767   -0.8036 C   0  0  0  0  0  0  0  0  0  0  0  0
    6.0482   -0.2493    0.5035 C   0  0  0  0  0  0  0  0  0  0  0  0
    6.5773    0.8904   -0.1264 C   0  0  0  0  0  0  0  0  0  0  0  0
    2.3606    0.1902   -0.1768 C   0  0  0  0  0  0  0  0  0  0  0  0
    1.5671    0.5993   -1.4180 C   0  0  0  0  0  0  0  0  0  0  0  0
    6.9156   -1.1686    1.1090 C   0  0  0  0  0  0  0  0  0  0  0  0
    7.9651    1.0748   -0.1740 C   0  0  0  0  0  0  0  0  0  0  0  0
    8.2954   -0.9714    1.0646 C   0  0  0  0  0  0  0  0  0  0  0  0
    8.8198    0.1478    0.4218 C   0  0  0  0  0  0  0  0  0  0  0  0
    0.0813    0.4843   -1.1880 C   0  0  0  0  0  0  0  0  0  0  0  0
   -0.5785   -0.7107   -1.4754 C   0  0  0  0  0  0  0  0  0  0  0  0
   -0.6334    1.5726   -0.6877 C   0  0  0  0  0  0  0  0  0  0  0  0
   -1.9529   -0.8173   -1.2627 C   0  0  0  0  0  0  0  0  0  0  0  0
   -2.0078    1.4661   -0.4749 C   0  0  0  0  0  0  0  0  0  0  0  0
   -2.6676    0.2713   -0.7624 C   0  0  0  0  0  0  0  0  0  0  0  0
    9.5707   -2.9667    0.8441 C   0  0  0  0  0  0  0  0  0  0  0  0
   10.6204    1.5188   -0.3086 C   0  0  0  0  0  0  0  0  0  0  0  0
   -4.8673   -0.9446   -0.7778 C   0  0  0  0  0  0  0  0  0  0  0  0
   -6.2987   -0.7578   -0.4233 C   0  0  0  0  0  0  0  0  0  0  0  0
   -6.6628    0.1535    0.5637 C   0  0  0  0  0  0  0  0  0  0  0  0
   -8.0149    0.3338    0.9011 C   0  0  0  0  0  0  0  0  0  0  0  0
   -7.2819   -1.4916   -1.0757 C   0  0  0  0  0  0  0  0  0  0  0  0
   -9.0184   -0.4076    0.2430 C   0  0  0  0  0  0  0  0  0  0  0  0
   -8.6260   -1.3121   -0.7399 C   0  0  0  0  0  0  0  0  0  0  0  0
   -8.4094    1.2444    1.8906 C   0  0  0  0  0  0  0  0  0  0  0  0
   -9.7527    1.3994    2.2010 C   0  0  0  0  0  0  0  0  0  0  0  0
  -10.6616    0.6301    1.5033 C   0  0  0  0  0  0  0  0  0  0  0  0
    4.0804    2.1406    0.6574 H   0  0  0  0  0  0  0  0  0  0  0  0
    3.6031    2.3660   -1.0228 H   0  0  0  0  0  0  0  0  0  0  0  0
    4.3415   -1.5181    0.4326 H   0  0  0  0  0  0  0  0  0  0  0  0
    4.2360   -0.1914    1.6100 H   0  0  0  0  0  0  0  0  0  0  0  0
    5.9973    2.8994   -0.5945 H   0  0  0  0  0  0  0  0  0  0  0  0
    5.7296    1.7163   -1.8873 H   0  0  0  0  0  0  0  0  0  0  0  0
    2.1196   -0.8601    0.0379 H   0  0  0  0  0  0  0  0  0  0  0  0
    2.0413    0.7636    0.7041 H   0  0  0  0  0  0  0  0  0  0  0  0
    1.8529   -0.0290   -2.2724 H   0  0  0  0  0  0  0  0  0  0  0  0
    1.7812    1.6284   -1.7264 H   0  0  0  0  0  0  0  0  0  0  0  0
    6.5120   -2.0412    1.6175 H   0  0  0  0  0  0  0  0  0  0  0  0
    8.3142    1.9617   -0.6926 H   0  0  0  0  0  0  0  0  0  0  0  0
   -0.0308   -1.5655   -1.8638 H   0  0  0  0  0  0  0  0  0  0  0  0
   -0.1301    2.5080   -0.4579 H   0  0  0  0  0  0  0  0  0  0  0  0
   -2.3903   -1.7744   -1.5090 H   0  0  0  0  0  0  0  0  0  0  0  0
   -2.5517    2.3223   -0.0838 H   0  0  0  0  0  0  0  0  0  0  0  0
   10.1401   -2.5972   -0.0147 H   0  0  0  0  0  0  0  0  0  0  0  0
    8.7219   -3.5673    0.5021 H   0  0  0  0  0  0  0  0  0  0  0  0
   10.2244   -3.5987    1.4512 H   0  0  0  0  0  0  0  0  0  0  0  0
   11.7140    1.5184   -0.2531 H   0  0  0  0  0  0  0  0  0  0  0  0
   10.2781    2.4323    0.1896 H   0  0  0  0  0  0  0  0  0  0  0  0
   10.3571    1.4984   -1.3717 H   0  0  0  0  0  0  0  0  0  0  0  0
   -4.4750    1.0240   -0.2225 H   0  0  0  0  0  0  0  0  0  0  0  0
   -5.9173    0.7161    1.1203 H   0  0  0  0  0  0  0  0  0  0  0  0
   -7.0277   -2.2064   -1.8540 H   0  0  0  0  0  0  0  0  0  0  0  0
   -9.3773   -1.8980   -1.2665 H   0  0  0  0  0  0  0  0  0  0  0  0
   -7.6720    1.8387    2.4253 H   0  0  0  0  0  0  0  0  0  0  0  0
  -10.0753    2.0990    2.9631 H   0  0  0  0  0  0  0  0  0  0  0  0
  -11.7252    0.7084    1.7028 H   0  0  0  0  0  0  0  0  0  0  0  0
  1 16  1  0  0  0  0
  1 24  1  0  0  0  0
  2 17  1  0  0  0  0
  2 25  1  0  0  0  0
  3 26  2  0  0  0  0
  4  7  1  0  0  0  0
  4  8  1  0  0  0  0
  4 12  1  0  0  0  0
  5 23  1  0  0  0  0
  5 26  1  0  0  0  0
  5 58  1  0  0  0  0
  6 31  1  0  0  0  0
  6 35  2  0  0  0  0
  7  9  1  0  0  0  0
  7 36  1  0  0  0  0
  7 37  1  0  0  0  0
  8 10  1  0  0  0  0
  8 38  1  0  0  0  0
  8 39  1  0  0  0  0
  9 11  1  0  0  0  0
  9 40  1  0  0  0  0
  9 41  1  0  0  0  0
 10 11  1  0  0  0  0
 10 14  2  0  0  0  0
 11 15  2  0  0  0  0
 12 13  1  0  0  0  0
 12 42  1  0  0  0  0
 12 43  1  0  0  0  0
 13 18  1  0  0  0  0
 13 44  1  0  0  0  0
 13 45  1  0  0  0  0
 14 16  1  0  0  0  0
 14 46  1  0  0  0  0
 15 17  1  0  0  0  0
 15 47  1  0  0  0  0
 16 17  2  0  0  0  0
 18 19  2  0  0  0  0
 18 20  1  0  0  0  0
 19 21  1  0  0  0  0
 19 48  1  0  0  0  0
 20 22  2  0  0  0  0
 20 49  1  0  0  0  0
 21 23  2  0  0  0  0
 21 50  1  0  0  0  0
 22 23  1  0  0  0  0
 22 51  1  0  0  0  0
 24 52  1  0  0  0  0
 24 53  1  0  0  0  0
 24 54  1  0  0  0  0
 25 55  1  0  0  0  0
 25 56  1  0  0  0  0
 25 57  1  0  0  0  0
 26 27  1  0  0  0  0
 27 28  2  0  0  0  0
 27 30  1  0  0  0  0
 28 29  1  0  0  0  0
 28 59  1  0  0  0  0
 29 31  2  0  0  0  0
 29 33  1  0  0  0  0
 30 32  2  0  0  0  0
 30 60  1  0  0  0  0
 31 32  1  0  0  0  0
 32 61  1  0  0  0  0
 33 34  2  0  0  0  0
 33 62  1  0  0  0  0
 34 35  1  0  0  0  0
 34 63  1  0  0  0  0
 35 64  1  0  0  0  0
M  END
> <PUBCHEM_COMPOUND_CID>
44451617

> <PUBCHEM_CONFORMER_RMSD>
1

> <PUBCHEM_CONFORMER_DIVERSEORDER>
8
73
25
114
90
4
33
112
85
94
93
115
58
6
19
48
118
51
42
113
89
104
7
105
23
96
41
17
116
26
28
15
111
82
66
2
81
57
74
76
55
100
99
117
31
102
21
11
70
43
83
92
5
65
84
109
110
37
59
67
95
80
44
86
34
3
106
54
103
32
1
45
79
77
20
97
75
12
36
101
69
22
39
38
14
16
46
71
18
78
72
9
24
40
47
10
49
35
91
68
87
30
64
56
29
107
13
60
63
88
52
27
62
61
98
53
50
108

> <PUBCHEM_MMFF94_PARTIAL_CHARGES>
47
1 -0.36
10 -0.14
11 -0.14
12 0.27
13 0.14
14 -0.15
15 -0.15
16 0.08
17 0.08
18 -0.14
19 -0.15
2 -0.36
20 -0.15
21 -0.15
22 -0.15
23 0.12
24 0.28
25 0.28
26 0.54
27 0.09
28 -0.15
3 -0.57
30 -0.15
31 0.31
32 -0.15
33 -0.15
34 -0.15
35 0.16
4 -0.81
46 0.15
47 0.15
48 0.15
49 0.15
5 -0.55
50 0.15
51 0.15
58 0.37
59 0.15
6 -0.62
60 0.15
61 0.15
62 0.15
63 0.15
64 0.15
7 0.27
8 0.41
9 0.14

> <PUBCHEM_EFFECTIVE_ROTOR_COUNT>
8.8

> <PUBCHEM_PHARMACOPHORE_FEATURES>
11
1 1 acceptor
1 2 acceptor
1 3 acceptor
1 4 cation
1 5 donor
1 6 acceptor
6 10 11 14 15 16 17 rings
6 18 19 20 21 22 23 rings
6 27 28 29 30 31 32 rings
6 4 7 8 9 10 11 rings
6 6 29 31 33 34 35 rings

> <PUBCHEM_HEAVY_ATOM_COUNT>
35

> <PUBCHEM_ATOM_DEF_STEREO_COUNT>
0

> <PUBCHEM_ATOM_UDEF_STEREO_COUNT>
0

> <PUBCHEM_BOND_DEF_STEREO_COUNT>
0

> <PUBCHEM_BOND_UDEF_STEREO_COUNT>
0

> <PUBCHEM_ISOTOPIC_ATOM_COUNT>
0

> <PUBCHEM_COMPONENT_COUNT>
1

> <PUBCHEM_CACTVS_TAUTO_COUNT>
2

> <PUBCHEM_CONFORMER_ID>
02A6472100000008

> <PUBCHEM_MMFF94_ENERGY>
125.5075

> <PUBCHEM_FEATURE_SELFOVERLAP>
55.881

> <PUBCHEM_SHAPE_FINGERPRINT>
10054150 59 11102424825647879321
10076449 9 14057001616185827941
10168742 298 15140681341837832338
10299344 5 18409725179982457438
10533779 1 17630619925877906873
10533779 47 18337113376065465498
10674148 151 18131067160135205307
11061554 47 15985110682869259705
11135609 127 8718535122465952406
11408170 108 17894912884517167354
11456790 92 18201723985403169737
11476731 38 17748830731286438820
11607047 141 15769779002130260166
11638347 137 18040435494599364460
11693224 71 11024114256672358716
12013929 2 16988569000459226260
12089408 11 18343581866978871623
12144603 126 18412829122429363516
12539745 222 17313383393070173477
12728209 37 17131834291959540154
13947947 19 12035451653465072650
14150022 121 17775008947381657137
14344974 52 12901551260857990684
14359421 15 18192153691343596982
14395042 24 18202571661666509417
15061470 23 17346598595551922112
15065858 18 14923935761373076468
15247644 1 15936411139125405659
15419008 145 18341897356022910313
15461852 350 12396297058880428223
15510794 2 15213301940909108829
15538507 64 18128821842578235129
16067689 302 16298660599504733171
16728433 110 17095241449664863332
1818759 1 17095243609447661770
20105231 36 16153426164726847977
20982279 24 17168153286521843643
21102433 48 18340199783089577023
21362267 2 13110951012490386266
21362267 20 18187363276939912555
21362267 313 17703514290311371430
21772524 286 17917157074532284001
21792934 111 14405182868770041458
21792961 116 16805317800458765989
21927370 108 17095523985751976965
232437 2 18259983786021636047
23576562 1 9727046760905272875
24771293 8 17988924466672596631
306946 40 14908178638233113595
335507 130 17748824133525523974
439807 62 18334855035375050376
44389302 135 18342731889543294882
44802255 64 14692574287759926173
4516262 110 13038907715786409493
45377200 153 14924234845742646905
4760202 170 11599712987986417450
54039377 194 16370727033044213335
5937810 71 13326310135189216059
6201320 215 18339079277830443065
636775 8 13695873632472235633
9937071 3 17095521790775111842

> <PUBCHEM_SHAPE_MULTIPOLES>
687.73
46.94
1.92
1.54
1.86
0.61
0.39
3.76
23.46
-2.84
0.15
2.13
0.02
-5.4

> <PUBCHEM_SHAPE_SELFOVERLAP>
1505.697

> <PUBCHEM_SHAPE_VOLUME>
371.8

> <PUBCHEM_COORDINATE_TYPE>
2
5
10

$$$$