15841042
  -OEChem-03242010103D

 70 76  0     1  0  0  0  0  0999 V2000
    6.6326   -1.7836    0.0949 Cl  0  0  0  0  0  0  0  0  0  0  0  0
    6.1218   -3.2197   -2.4056 Cl  0  0  0  0  0  0  0  0  0  0  0  0
   -4.4470    3.7326    1.4569 O   0  0  0  0  0  0  0  0  0  0  0  0
   -5.2385    1.4653    0.0111 O   0  0  0  0  0  0  0  0  0  0  0  0
    1.4482    1.2482    0.5113 N   0  0  0  0  0  0  0  0  0  0  0  0
   -1.1081    2.5858    0.3251 N   0  0  0  0  0  0  0  0  0  0  0  0
   -6.2211   -3.2345   -0.4674 N   0  0  0  0  0  0  0  0  0  0  0  0
    3.9994   -2.1106   -0.9536 C   0  0  1  0  0  0  0  0  0  0  0  0
    4.6045   -0.9638   -1.7363 C   0  0  2  0  0  0  0  0  0  0  0  0
    5.4832   -2.0710   -1.2139 C   0  0  0  0  0  0  0  0  0  0  0  0
    3.4925   -1.9712    0.4649 C   0  0  0  0  0  0  0  0  0  0  0  0
    4.7609    0.4324   -1.1756 C   0  0  0  0  0  0  0  0  0  0  0  0
    2.4852    0.3474    0.0120 C   0  0  0  0  0  0  0  0  0  0  0  0
    2.7644   -0.8453    0.9184 C   0  0  0  0  0  0  0  0  0  0  0  0
    3.7713    1.0627   -0.3836 C   0  0  0  0  0  0  0  0  0  0  0  0
    3.7186   -3.0197    1.3798 C   0  0  0  0  0  0  0  0  0  0  0  0
    5.9269    1.1654   -1.4764 C   0  0  0  0  0  0  0  0  0  0  0  0
    1.2393    2.3675   -0.4153 C   0  0  0  0  0  0  0  0  0  0  0  0
    0.1905    0.5238    0.7324 C   0  0  0  0  0  0  0  0  0  0  0  0
    2.3056   -0.7982    2.2493 C   0  0  0  0  0  0  0  0  0  0  0  0
    3.9805    2.3744    0.0847 C   0  0  0  0  0  0  0  0  0  0  0  0
    0.1492    3.3109    0.1048 C   0  0  0  0  0  0  0  0  0  0  0  0
   -0.8987    1.4679    1.2532 C   0  0  0  0  0  0  0  0  0  0  0  0
    3.2571   -2.9617    2.6948 C   0  0  0  0  0  0  0  0  0  0  0  0
    6.1209    2.4649   -1.0083 C   0  0  0  0  0  0  0  0  0  0  0  0
    2.5502   -1.8491    3.1298 C   0  0  0  0  0  0  0  0  0  0  0  0
    5.1466    3.0696   -0.2263 C   0  0  0  0  0  0  0  0  0  0  0  0
   -2.1462    3.4861    0.8227 C   0  0  0  0  0  0  0  0  0  0  0  0
   -3.4874    2.7720    1.0069 C   0  0  2  0  0  0  0  0  0  0  0  0
   -4.0098    2.1265   -0.2747 C   0  0  0  0  0  0  0  0  0  0  0  0
   -5.5409    0.3709   -0.7543 C   0  0  0  0  0  0  0  0  0  0  0  0
   -5.7259   -0.8941   -0.1762 C   0  0  0  0  0  0  0  0  0  0  0  0
   -5.6600    0.5474   -2.1278 C   0  0  0  0  0  0  0  0  0  0  0  0
   -6.0365   -2.0060   -0.9868 C   0  0  0  0  0  0  0  0  0  0  0  0
   -5.9656   -0.5434   -2.9323 C   0  0  0  0  0  0  0  0  0  0  0  0
   -5.6111   -1.0967    1.2057 C   0  0  0  0  0  0  0  0  0  0  0  0
   -6.1504   -1.8041   -2.3595 C   0  0  0  0  0  0  0  0  0  0  0  0
   -5.8008   -2.3614    1.7438 C   0  0  0  0  0  0  0  0  0  0  0  0
   -6.1014   -3.3875    0.8713 C   0  0  0  0  0  0  0  0  0  0  0  0
    3.4147   -2.8049   -1.5564 H   0  0  0  0  0  0  0  0  0  0  0  0
    4.3773   -0.9800   -2.8018 H   0  0  0  0  0  0  0  0  0  0  0  0
    2.0881   -0.0774   -0.9243 H   0  0  0  0  0  0  0  0  0  0  0  0
    4.2636   -3.9055    1.0583 H   0  0  0  0  0  0  0  0  0  0  0  0
    6.7013    0.7139   -2.0941 H   0  0  0  0  0  0  0  0  0  0  0  0
    2.0533    3.0300   -0.6932 H   0  0  0  0  0  0  0  0  0  0  0  0
    0.8968    1.9639   -1.3817 H   0  0  0  0  0  0  0  0  0  0  0  0
   -0.1568    0.0915   -0.2186 H   0  0  0  0  0  0  0  0  0  0  0  0
    0.2100   -0.3157    1.4258 H   0  0  0  0  0  0  0  0  0  0  0  0
    1.8403    0.0843    2.6806 H   0  0  0  0  0  0  0  0  0  0  0  0
    3.3401    2.8485    0.8255 H   0  0  0  0  0  0  0  0  0  0  0  0
   -0.0125    4.0974   -0.6430 H   0  0  0  0  0  0  0  0  0  0  0  0
    0.4922    3.8002    1.0265 H   0  0  0  0  0  0  0  0  0  0  0  0
   -0.6307    1.8279    2.2556 H   0  0  0  0  0  0  0  0  0  0  0  0
   -1.8007    0.8557    1.3502 H   0  0  0  0  0  0  0  0  0  0  0  0
    3.4538   -3.7838    3.3763 H   0  0  0  0  0  0  0  0  0  0  0  0
    7.0349    2.9987   -1.2506 H   0  0  0  0  0  0  0  0  0  0  0  0
    2.2093   -1.7883    4.1590 H   0  0  0  0  0  0  0  0  0  0  0  0
    5.3084    4.0676    0.1700 H   0  0  0  0  0  0  0  0  0  0  0  0
   -2.2901    4.3150    0.1165 H   0  0  0  0  0  0  0  0  0  0  0  0
   -1.8524    3.9537    1.7726 H   0  0  0  0  0  0  0  0  0  0  0  0
   -3.4421    2.0305    1.8109 H   0  0  0  0  0  0  0  0  0  0  0  0
   -4.2083    2.8982   -1.0277 H   0  0  0  0  0  0  0  0  0  0  0  0
   -3.2788    1.4148   -0.6764 H   0  0  0  0  0  0  0  0  0  0  0  0
   -5.2976    3.2712    1.5550 H   0  0  0  0  0  0  0  0  0  0  0  0
   -5.5287    1.5240   -2.5845 H   0  0  0  0  0  0  0  0  0  0  0  0
   -6.0635   -0.4171   -4.0066 H   0  0  0  0  0  0  0  0  0  0  0  0
   -5.3728   -0.2767    1.8790 H   0  0  0  0  0  0  0  0  0  0  0  0
   -6.3896   -2.6423   -3.0115 H   0  0  0  0  0  0  0  0  0  0  0  0
   -5.7155   -2.5360    2.8098 H   0  0  0  0  0  0  0  0  0  0  0  0
   -6.2602   -4.3975    1.2344 H   0  0  0  0  0  0  0  0  0  0  0  0
  1 10  1  0  0  0  0
  2 10  1  0  0  0  0
  3 29  1  0  0  0  0
  3 64  1  0  0  0  0
  4 30  1  0  0  0  0
  4 31  1  0  0  0  0
  5 13  1  0  0  0  0
  5 18  1  0  0  0  0
  5 19  1  0  0  0  0
  6 22  1  0  0  0  0
  6 23  1  0  0  0  0
  6 28  1  0  0  0  0
  7 34  1  0  0  0  0
  7 39  2  0  0  0  0
  8  9  1  0  0  0  0
  8 10  1  0  0  0  0
  8 11  1  0  0  0  0
  8 40  1  0  0  0  0
  9 10  1  0  0  0  0
  9 12  1  0  0  0  0
  9 41  1  0  0  0  0
 11 14  1  0  0  0  0
 11 16  2  0  0  0  0
 12 15  1  0  0  0  0
 12 17  2  0  0  0  0
 13 14  1  0  0  0  0
 13 15  1  0  0  0  0
 13 42  1  0  0  0  0
 14 20  2  0  0  0  0
 15 21  2  0  0  0  0
 16 24  1  0  0  0  0
 16 43  1  0  0  0  0
 17 25  1  0  0  0  0
 17 44  1  0  0  0  0
 18 22  1  0  0  0  0
 18 45  1  0  0  0  0
 18 46  1  0  0  0  0
 19 23  1  0  0  0  0
 19 47  1  0  0  0  0
 19 48  1  0  0  0  0
 20 26  1  0  0  0  0
 20 49  1  0  0  0  0
 21 27  1  0  0  0  0
 21 50  1  0  0  0  0
 22 51  1  0  0  0  0
 22 52  1  0  0  0  0
 23 53  1  0  0  0  0
 23 54  1  0  0  0  0
 24 26  2  0  0  0  0
 24 55  1  0  0  0  0
 25 27  2  0  0  0  0
 25 56  1  0  0  0  0
 26 57  1  0  0  0  0
 27 58  1  0  0  0  0
 28 29  1  0  0  0  0
 28 59  1  0  0  0  0
 28 60  1  0  0  0  0
 29 30  1  0  0  0  0
 29 61  1  0  0  0  0
 30 62  1  0  0  0  0
 30 63  1  0  0  0  0
 31 32  1  0  0  0  0
 31 33  2  0  0  0  0
 32 34  2  0  0  0  0
 32 36  1  0  0  0  0
 33 35  1  0  0  0  0
 33 65  1  0  0  0  0
 34 37  1  0  0  0  0
 35 37  2  0  0  0  0
 35 66  1  0  0  0  0
 36 38  2  0  0  0  0
 36 67  1  0  0  0  0
 37 68  1  0  0  0  0
 38 39  1  0  0  0  0
 38 69  1  0  0  0  0
 39 70  1  0  0  0  0
M  END
> <PUBCHEM_COMPOUND_CID>
15841042

> <PUBCHEM_CONFORMER_RMSD>
1

> <PUBCHEM_CONFORMER_DIVERSEORDER>
2
50
156
123
112
49
122
101
4
119
141
83
152
43
28
29
136
17
66
118
9
121
108
30
153
75
89
110
74
34
157
8
31
97
55
39
82
133
62
144
95
57
106
46
35
140
1
58
88
69
19
134
113
137
87
36
90
145
60
127
16
20
70
132
65
148
21
115
56
73
47
151
22
37
159
143
59
105
71
85
93
104
99
13
91
79
129
7
84
18
54
51
96
26
125
149
92
154
124
130
12
24
142
147
11
81
77
10
146
33
107
61
14
68
52
76
86
40
103
3
80
155
126
111
158
27
100
131
139
160
135
15
48
128
42
116
38
114
63
102
6
98
53
44
117
78
23
138
94
67
120
5
45
109
72
25
32
41
150
64

> <PUBCHEM_MMFF94_PARTIAL_CHARGES>
55
1 -0.23
10 0.45
11 -0.03
12 -0.03
13 0.56
14 -0.14
15 -0.14
16 -0.15
17 -0.15
18 0.27
19 0.27
2 -0.23
20 -0.15
21 -0.15
22 0.27
23 0.27
24 -0.15
25 -0.15
26 -0.15
27 -0.15
28 0.27
29 0.28
3 -0.68
30 0.28
31 0.08
33 -0.15
34 0.31
35 -0.15
36 -0.15
37 -0.15
38 -0.15
39 0.16
4 -0.36
40 0.1
41 0.1
43 0.15
44 0.15
49 0.15
5 -0.81
50 0.15
55 0.15
56 0.15
57 0.15
58 0.15
6 -0.81
64 0.4
65 0.15
66 0.15
67 0.15
68 0.15
69 0.15
7 -0.62
70 0.15
8 -0.07
9 -0.07

> <PUBCHEM_EFFECTIVE_ROTOR_COUNT>
7.6

> <PUBCHEM_PHARMACOPHORE_FEATURES>
12
1 3 acceptor
1 3 donor
1 4 acceptor
1 5 cation
1 6 cation
1 7 acceptor
6 11 14 16 20 24 26 rings
6 12 15 17 21 25 27 rings
6 31 32 33 34 35 37 rings
6 5 6 18 19 22 23 rings
6 7 32 34 36 38 39 rings
7 8 9 11 12 13 14 15 rings

> <PUBCHEM_HEAVY_ATOM_COUNT>
39

> <PUBCHEM_ATOM_DEF_STEREO_COUNT>
3

> <PUBCHEM_ATOM_UDEF_STEREO_COUNT>
0

> <PUBCHEM_BOND_DEF_STEREO_COUNT>
0

> <PUBCHEM_BOND_UDEF_STEREO_COUNT>
0

> <PUBCHEM_ISOTOPIC_ATOM_COUNT>
0

> <PUBCHEM_COMPONENT_COUNT>
1

> <PUBCHEM_CACTVS_TAUTO_COUNT>
1

> <PUBCHEM_CONFORMER_ID>
00F1B71200000002

> <PUBCHEM_MMFF94_ENERGY>
148.4853

> <PUBCHEM_FEATURE_SELFOVERLAP>
60.951

> <PUBCHEM_SHAPE_FINGERPRINT>
10169797 241 18343013436763329610
10190206 1 18262530293996862348
10462674 369 17025737029106653411
10622 236 18264757788648297843
11227688 84 18260843591673189569
117089 54 18201446839358199103
12422481 6 16917075443149314421
12559416 138 18059009626907899591
1361 4 18343306984824426741
1361 87 18408599280360834655
13636023 20 18334855022052578680
13782708 43 17274819125666978254
15001296 14 18336265652362787260
15183329 4 17703512194061493655
15250474 111 18264202517938217873
15467298 65 18339643343546524359
16989378 47 18336262362243668054
19246450 95 11167121059432427861
20775438 99 18408890612329869490
208703 8 18342174453667725983
21599406 157 17749385971151097727
21792965 302 18186806920018317532
2260408 40 10807924952177030642
25223398 141 17488173808139377828
42767 24 18059285470528486855
42767 28 18114174238280720555
444735 86 18409444803968878264
50009960 94 18336813201101548986
6431902 208 18341897437373418597

> <PUBCHEM_SHAPE_MULTIPOLES>
779.66
21.14
5.12
2.54
18.51
1.06
0
-11.81
10.2
0.14
-1.26
0.36
-2.1
-1.31

> <PUBCHEM_SHAPE_SELFOVERLAP>
1702.808

> <PUBCHEM_SHAPE_VOLUME>
417.7

> <PUBCHEM_COORDINATE_TYPE>
2
5
10

$$$$