57384779
  -OEChem-03242010103D

 65 68  0     1  0  0  0  0  0999 V2000
   -2.3559    2.9232    2.5145 O   0  0  0  0  0  0  0  0  0  0  0  0
   -3.5081    1.6589    0.2939 O   0  0  0  0  0  0  0  0  0  0  0  0
   -5.2921   -1.0975    1.1575 O   0  0  0  0  0  0  0  0  0  0  0  0
    0.7494    1.8374    0.8032 N   0  0  0  0  0  0  0  0  0  0  0  0
    3.1684    0.5541   -0.0098 N   0  0  0  0  0  0  0  0  0  0  0  0
    1.9246    2.6354    0.4318 C   0  0  0  0  0  0  0  0  0  0  0  0
    1.1769    0.5856    1.4396 C   0  0  0  0  0  0  0  0  0  0  0  0
    2.8176    1.8736   -0.5501 C   0  0  0  0  0  0  0  0  0  0  0  0
    2.0461   -0.2448    0.4920 C   0  0  0  0  0  0  0  0  0  0  0  0
   -0.1236    2.5960    1.6981 C   0  0  0  0  0  0  0  0  0  0  0  0
    4.3015   -0.0866   -0.5234 C   0  0  0  0  0  0  0  0  0  0  0  0
   -1.5719    2.1040    1.6424 C   0  0  2  0  0  0  0  0  0  0  0  0
    5.5580    0.1149    0.0475 C   0  0  0  0  0  0  0  0  0  0  0  0
   -2.1781    2.1657    0.2421 C   0  0  0  0  0  0  0  0  0  0  0  0
    4.1626   -0.9344   -1.6223 C   0  0  0  0  0  0  0  0  0  0  0  0
    6.6757   -0.5314   -0.4803 C   0  0  0  0  0  0  0  0  0  0  0  0
    5.7113    1.0238    1.2265 C   0  0  0  0  0  0  0  0  0  0  0  0
    5.2804   -1.5807   -2.1503 C   0  0  0  0  0  0  0  0  0  0  0  0
    6.5369   -1.3792   -1.5793 C   0  0  0  0  0  0  0  0  0  0  0  0
    8.0326   -0.3333    0.1119 C   0  0  0  0  0  0  0  0  0  0  0  0
   -3.9844    1.0644   -0.8440 C   0  0  0  0  0  0  0  0  0  0  0  0
   -4.3952   -0.2685   -0.8371 C   0  0  0  0  0  0  0  0  0  0  0  0
   -4.0581    1.8109   -2.0200 C   0  0  0  0  0  0  0  0  0  0  0  0
   -4.8798   -0.8551   -2.0062 C   0  0  0  0  0  0  0  0  0  0  0  0
   -4.3279   -1.0652    0.3801 C   0  0  0  0  0  0  0  0  0  0  0  0
   -4.5428    1.2244   -3.1892 C   0  0  0  0  0  0  0  0  0  0  0  0
   -4.9536   -0.1085   -3.1823 C   0  0  0  0  0  0  0  0  0  0  0  0
   -3.1216   -1.8656    0.7454 C   0  0  0  0  0  0  0  0  0  0  0  0
   -3.1100   -2.6119    1.9238 C   0  0  0  0  0  0  0  0  0  0  0  0
   -2.0068   -1.8683   -0.0929 C   0  0  0  0  0  0  0  0  0  0  0  0
   -1.9833   -3.3607    2.2640 C   0  0  0  0  0  0  0  0  0  0  0  0
   -0.8803   -2.6171    0.2472 C   0  0  0  0  0  0  0  0  0  0  0  0
   -0.8685   -3.3633    1.4257 C   0  0  0  0  0  0  0  0  0  0  0  0
    1.7404    0.7912    2.3601 H   0  0  0  0  0  0  0  0  0  0  0  0
    0.3104   -0.0227    1.7202 H   0  0  0  0  0  0  0  0  0  0  0  0
    1.6111    3.5680   -0.0529 H   0  0  0  0  0  0  0  0  0  0  0  0
    2.5049    2.9078    1.3237 H   0  0  0  0  0  0  0  0  0  0  0  0
    2.4155   -1.1252    1.0320 H   0  0  0  0  0  0  0  0  0  0  0  0
    1.4435   -0.5988   -0.3532 H   0  0  0  0  0  0  0  0  0  0  0  0
    2.3034    1.7487   -1.5117 H   0  0  0  0  0  0  0  0  0  0  0  0
    3.7206    2.4681   -0.7357 H   0  0  0  0  0  0  0  0  0  0  0  0
    0.2432    2.5980    2.7335 H   0  0  0  0  0  0  0  0  0  0  0  0
   -0.1358    3.6554    1.4043 H   0  0  0  0  0  0  0  0  0  0  0  0
   -1.6553    1.0846    2.0339 H   0  0  0  0  0  0  0  0  0  0  0  0
   -1.5746    1.5791   -0.4612 H   0  0  0  0  0  0  0  0  0  0  0  0
   -2.2239    3.2040   -0.1069 H   0  0  0  0  0  0  0  0  0  0  0  0
    3.1925   -1.0989   -2.0844 H   0  0  0  0  0  0  0  0  0  0  0  0
    6.0872    1.9993    0.9010 H   0  0  0  0  0  0  0  0  0  0  0  0
    4.7727    1.1848    1.7660 H   0  0  0  0  0  0  0  0  0  0  0  0
    6.3998    0.6059    1.9683 H   0  0  0  0  0  0  0  0  0  0  0  0
    5.1723   -2.2399   -3.0067 H   0  0  0  0  0  0  0  0  0  0  0  0
   -2.3247    3.8350    2.1778 H   0  0  0  0  0  0  0  0  0  0  0  0
    7.3970   -1.8913   -2.0025 H   0  0  0  0  0  0  0  0  0  0  0  0
    8.2712    0.7318    0.1989 H   0  0  0  0  0  0  0  0  0  0  0  0
    8.0928   -0.8043    1.0983 H   0  0  0  0  0  0  0  0  0  0  0  0
    8.8141   -0.7804   -0.5127 H   0  0  0  0  0  0  0  0  0  0  0  0
   -3.7506    2.8528   -2.0393 H   0  0  0  0  0  0  0  0  0  0  0  0
   -5.2034   -1.8928   -2.0135 H   0  0  0  0  0  0  0  0  0  0  0  0
   -4.6023    1.8062   -4.1044 H   0  0  0  0  0  0  0  0  0  0  0  0
   -5.3314   -0.5650   -4.0925 H   0  0  0  0  0  0  0  0  0  0  0  0
   -3.9647   -2.6273    2.5945 H   0  0  0  0  0  0  0  0  0  0  0  0
   -1.9763   -1.3007   -1.0179 H   0  0  0  0  0  0  0  0  0  0  0  0
   -1.9737   -3.9419    3.1815 H   0  0  0  0  0  0  0  0  0  0  0  0
   -0.0141   -2.6245   -0.4076 H   0  0  0  0  0  0  0  0  0  0  0  0
    0.0087   -3.9466    1.6899 H   0  0  0  0  0  0  0  0  0  0  0  0
  1 12  1  0  0  0  0
  1 52  1  0  0  0  0
  2 14  1  0  0  0  0
  2 21  1  0  0  0  0
  3 25  2  0  0  0  0
  4  6  1  0  0  0  0
  4  7  1  0  0  0  0
  4 10  1  0  0  0  0
  5  8  1  0  0  0  0
  5  9  1  0  0  0  0
  5 11  1  0  0  0  0
  6  8  1  0  0  0  0
  6 36  1  0  0  0  0
  6 37  1  0  0  0  0
  7  9  1  0  0  0  0
  7 34  1  0  0  0  0
  7 35  1  0  0  0  0
  8 40  1  0  0  0  0
  8 41  1  0  0  0  0
  9 38  1  0  0  0  0
  9 39  1  0  0  0  0
 10 12  1  0  0  0  0
 10 42  1  0  0  0  0
 10 43  1  0  0  0  0
 11 13  1  0  0  0  0
 11 15  2  0  0  0  0
 12 14  1  0  0  0  0
 12 44  1  0  0  0  0
 13 16  2  0  0  0  0
 13 17  1  0  0  0  0
 14 45  1  0  0  0  0
 14 46  1  0  0  0  0
 15 18  1  0  0  0  0
 15 47  1  0  0  0  0
 16 19  1  0  0  0  0
 16 20  1  0  0  0  0
 17 48  1  0  0  0  0
 17 49  1  0  0  0  0
 17 50  1  0  0  0  0
 18 19  2  0  0  0  0
 18 51  1  0  0  0  0
 19 53  1  0  0  0  0
 20 54  1  0  0  0  0
 20 55  1  0  0  0  0
 20 56  1  0  0  0  0
 21 22  1  0  0  0  0
 21 23  2  0  0  0  0
 22 24  2  0  0  0  0
 22 25  1  0  0  0  0
 23 26  1  0  0  0  0
 23 57  1  0  0  0  0
 24 27  1  0  0  0  0
 24 58  1  0  0  0  0
 25 28  1  0  0  0  0
 26 27  2  0  0  0  0
 26 59  1  0  0  0  0
 27 60  1  0  0  0  0
 28 29  2  0  0  0  0
 28 30  1  0  0  0  0
 29 31  1  0  0  0  0
 29 61  1  0  0  0  0
 30 32  2  0  0  0  0
 30 62  1  0  0  0  0
 31 33  2  0  0  0  0
 31 63  1  0  0  0  0
 32 33  1  0  0  0  0
 32 64  1  0  0  0  0
 33 65  1  0  0  0  0
M  END
> <PUBCHEM_COMPOUND_CID>
57384779

> <PUBCHEM_CONFORMER_RMSD>
1.2

> <PUBCHEM_CONFORMER_DIVERSEORDER>
1
173
130
79
153
87
168
102
99
172
72
105
97
151
157
121
108
144
145
51
46
148
162
110
65
112
159
160
98
54
95
58
53
60
126
75
124
94
96
21
150
125
89
171
50
166
120
134
154
59
155
81
164
141
140
84
137
68
161
71
30
70
142
169
165
63
135
12
128
114
103
64
163
170
55
76
7
90
149
93
146
43
104
131
74
167
13
32
82
73
44
80
133
107
35
91
92
106
139
132
57
26
23
28
41
111
40
119
24
127
116
45
129
8
15
88
118
115
31
147
143
152
136
158
47
42
85
61
67
78
37
25
16
56
77
123
122
33
18
86
36
2
101
62
52
66
138
83
156
6
117
10
113
38
48
27
49
20
39
3
69
19
9
14
100
17
34
22
29
4
5
109
11

> <PUBCHEM_MMFF94_PARTIAL_CHARGES>
46
1 -0.68
10 0.27
11 0.1
12 0.28
13 -0.14
14 0.28
15 -0.15
16 -0.14
17 0.14
18 -0.15
19 -0.15
2 -0.36
20 0.14
21 0.08
22 0.09
23 -0.15
24 -0.15
25 0.4
26 -0.15
27 -0.15
28 0.09
29 -0.15
3 -0.57
30 -0.15
31 -0.15
32 -0.15
33 -0.15
4 -0.81
47 0.15
5 -0.84
51 0.15
52 0.4
53 0.15
57 0.15
58 0.15
59 0.15
6 0.27
60 0.15
61 0.15
62 0.15
63 0.15
64 0.15
65 0.15
7 0.27
8 0.37
9 0.37

> <PUBCHEM_EFFECTIVE_ROTOR_COUNT>
9.2

> <PUBCHEM_PHARMACOPHORE_FEATURES>
10
1 1 acceptor
1 1 donor
1 2 acceptor
1 3 acceptor
1 4 cation
1 5 cation
6 11 13 15 16 18 19 rings
6 21 22 23 24 26 27 rings
6 28 29 30 31 32 33 rings
6 4 5 6 7 8 9 rings

> <PUBCHEM_HEAVY_ATOM_COUNT>
33

> <PUBCHEM_ATOM_DEF_STEREO_COUNT>
0

> <PUBCHEM_ATOM_UDEF_STEREO_COUNT>
1

> <PUBCHEM_BOND_DEF_STEREO_COUNT>
0

> <PUBCHEM_BOND_UDEF_STEREO_COUNT>
0

> <PUBCHEM_ISOTOPIC_ATOM_COUNT>
0

> <PUBCHEM_COMPONENT_COUNT>
1

> <PUBCHEM_CACTVS_TAUTO_COUNT>
1

> <PUBCHEM_CONFORMER_ID>
036B9F4B00000001

> <PUBCHEM_MMFF94_ENERGY>
120.5931

> <PUBCHEM_FEATURE_SELFOVERLAP>
50.753

> <PUBCHEM_SHAPE_FINGERPRINT>
10165383 225 18114180809991932051
105312 117 17821726096548531263
10577160 183 17168414979675487976
10670039 82 17530959207195911567
10674148 151 18201716228808414105
1200032 147 17097484303199178141
14114206 34 18341885243777162033
14114211 68 17970334942061765839
14251740 79 18410297999290644667
14279260 333 18199190594659569966
14395042 70 14757063715086949313
14659021 117 17988918951011532505
14844126 61 17274546417056557809
14931854 50 18338782439169080943
14950920 106 14117503363926300105
15183329 4 18187078456092785186
15351339 4 18261952951560872074
16067689 68 16806700998676024600
17627616 140 18044942255576502962
17780758 139 14261349159174624597
19958102 18 18261391101308592238
20775438 99 16765306747785069967
23428019 142 18333456430187117962
23536364 44 18410576171543116505
23559900 14 18267298905843813240
23572383 38 18342453790161867768
25025965 108 17559098875574789654
27425 322 15430866594013406845
3383291 50 18412828022860278779
4015057 19 18059849627441207648
4073 2 18201169746044117144
484985 159 18339094747758474195
508706 21 18408606950259431836
6009941 240 18187079560210746838
6431902 208 17846495924426573196
6523845 18 18113900459996102769
6636798 310 14260771837901792957
70634741 139 18261402212605342432
9862886 166 18409452501067055344

> <PUBCHEM_SHAPE_MULTIPOLES>
651.55
16.79
3.65
2.73
26.41
1.34
1.25
2.46
9.54
-3.51
-2.43
-3.17
-0.47
3.2

> <PUBCHEM_SHAPE_SELFOVERLAP>
1395.574

> <PUBCHEM_SHAPE_VOLUME>
361.2

> <PUBCHEM_COORDINATE_TYPE>
2
5
10

$$$$