44285866
  -OEChem-03242010093D

 67 68  0     1  0  0  0  0  0999 V2000
    0.0689    1.7420   -0.6389 O   0  0  0  0  0  0  0  0  0  0  0  0
   -2.7405   -0.2238   -0.8086 O   0  0  0  0  0  0  0  0  0  0  0  0
   -0.9010    0.1031    1.7963 O   0  0  0  0  0  0  0  0  0  0  0  0
   -1.8489    2.7300   -1.4518 O   0  0  0  0  0  0  0  0  0  0  0  0
   -1.9335   -3.0150    2.2391 O   0  0  0  0  0  0  0  0  0  0  0  0
    0.7972    1.0454    3.0410 O   0  0  0  0  0  0  0  0  0  0  0  0
   -5.0733    0.3130   -0.7577 O   0  0  0  0  0  0  0  0  0  0  0  0
   -1.2472   -2.3984    0.1026 N   0  0  0  0  0  0  0  0  0  0  0  0
   -0.5988   -1.4228   -0.8207 C   0  0  2  0  0  0  0  0  0  0  0  0
   -1.6533   -0.6344   -1.6414 C   0  0  2  0  0  0  0  0  0  0  0  0
    0.2461    2.7772    0.3582 C   0  0  1  0  0  0  0  0  0  0  0  0
    0.4389   -2.1077   -1.7169 C   0  0  0  0  0  0  0  0  0  0  0  0
   -1.1126    0.6147   -2.3491 C   0  0  0  0  0  0  0  0  0  0  0  0
   -0.5925    2.4420    1.6126 C   0  0  2  0  0  0  0  0  0  0  0  0
    1.7479    2.8957    0.6033 C   0  0  0  0  0  0  0  0  0  0  0  0
    2.4994    3.1897   -0.6923 C   0  0  0  0  0  0  0  0  0  0  0  0
   -1.0224    1.8261   -1.4471 C   0  0  0  0  0  0  0  0  0  0  0  0
    1.7104   -2.3886   -0.9683 C   0  0  0  0  0  0  0  0  0  0  0  0
   -1.2828   -2.2697    1.4991 C   0  0  0  0  0  0  0  0  0  0  0  0
   -1.9466   -3.5344   -0.5029 C   0  0  0  0  0  0  0  0  0  0  0  0
   -0.5763    3.5650    2.6483 C   0  0  0  0  0  0  0  0  0  0  0  0
   -0.1393    1.1403    2.2573 C   0  0  0  0  0  0  0  0  0  0  0  0
    4.0057    3.2755   -0.4479 C   0  0  0  0  0  0  0  0  0  0  0  0
   -0.4215   -1.1940    2.1379 C   0  0  0  0  0  0  0  0  0  0  0  0
   -3.9441   -0.0525   -1.5507 C   0  0  0  0  0  0  0  0  0  0  0  0
    2.7315   -1.4387   -0.9475 C   0  0  0  0  0  0  0  0  0  0  0  0
    1.8701   -3.5992   -0.2941 C   0  0  0  0  0  0  0  0  0  0  0  0
    4.7657    3.5347   -1.7390 C   0  0  0  0  0  0  0  0  0  0  0  0
    3.9126   -1.6993   -0.2525 C   0  0  0  0  0  0  0  0  0  0  0  0
    3.0511   -3.8598    0.4010 C   0  0  0  0  0  0  0  0  0  0  0  0
    4.0723   -2.9099    0.4217 C   0  0  0  0  0  0  0  0  0  0  0  0
   -4.8833    1.5538   -0.0908 C   0  0  0  0  0  0  0  0  0  0  0  0
   -0.0677   -0.6913   -0.2165 H   0  0  0  0  0  0  0  0  0  0  0  0
   -2.0288   -1.3182   -2.4152 H   0  0  0  0  0  0  0  0  0  0  0  0
   -0.1030    3.7326   -0.0564 H   0  0  0  0  0  0  0  0  0  0  0  0
    0.6989   -1.4734   -2.5716 H   0  0  0  0  0  0  0  0  0  0  0  0
    0.0598   -3.0273   -2.1758 H   0  0  0  0  0  0  0  0  0  0  0  0
   -1.7817    0.8949   -3.1723 H   0  0  0  0  0  0  0  0  0  0  0  0
   -0.1398    0.4546   -2.8226 H   0  0  0  0  0  0  0  0  0  0  0  0
   -1.6395    2.3026    1.3120 H   0  0  0  0  0  0  0  0  0  0  0  0
    1.9570    3.6830    1.3353 H   0  0  0  0  0  0  0  0  0  0  0  0
    2.1399    1.9546    1.0059 H   0  0  0  0  0  0  0  0  0  0  0  0
    2.1416    4.1334   -1.1216 H   0  0  0  0  0  0  0  0  0  0  0  0
    2.3093    2.4050   -1.4341 H   0  0  0  0  0  0  0  0  0  0  0  0
   -1.2208   -4.2335   -0.9225 H   0  0  0  0  0  0  0  0  0  0  0  0
   -2.6215   -3.1842   -1.2868 H   0  0  0  0  0  0  0  0  0  0  0  0
   -2.5417   -4.0789    0.2354 H   0  0  0  0  0  0  0  0  0  0  0  0
    0.4229    3.7289    3.0642 H   0  0  0  0  0  0  0  0  0  0  0  0
   -1.2373    3.3209    3.4875 H   0  0  0  0  0  0  0  0  0  0  0  0
   -0.9235    4.5054    2.2082 H   0  0  0  0  0  0  0  0  0  0  0  0
    4.2224    4.0789    0.2658 H   0  0  0  0  0  0  0  0  0  0  0  0
    4.3657    2.3401   -0.0035 H   0  0  0  0  0  0  0  0  0  0  0  0
   -0.4708   -1.3184    3.2262 H   0  0  0  0  0  0  0  0  0  0  0  0
    0.6185   -1.3262    1.8193 H   0  0  0  0  0  0  0  0  0  0  0  0
   -3.8221    0.7012   -2.3358 H   0  0  0  0  0  0  0  0  0  0  0  0
   -4.2047   -1.0018   -2.0312 H   0  0  0  0  0  0  0  0  0  0  0  0
    2.6177   -0.4894   -1.4645 H   0  0  0  0  0  0  0  0  0  0  0  0
    1.0883   -4.3525   -0.3039 H   0  0  0  0  0  0  0  0  0  0  0  0
    4.5984    2.7292   -2.4612 H   0  0  0  0  0  0  0  0  0  0  0  0
    5.8403    3.5950   -1.5406 H   0  0  0  0  0  0  0  0  0  0  0  0
    4.4510    4.4780   -2.1967 H   0  0  0  0  0  0  0  0  0  0  0  0
    4.7066   -0.9585   -0.2349 H   0  0  0  0  0  0  0  0  0  0  0  0
    3.1759   -4.8027    0.9253 H   0  0  0  0  0  0  0  0  0  0  0  0
    4.9916   -3.1127    0.9632 H   0  0  0  0  0  0  0  0  0  0  0  0
   -5.7979    1.7905    0.4596 H   0  0  0  0  0  0  0  0  0  0  0  0
   -4.6950    2.3536   -0.8133 H   0  0  0  0  0  0  0  0  0  0  0  0
   -4.0579    1.4869    0.6239 H   0  0  0  0  0  0  0  0  0  0  0  0
  1 11  1  0  0  0  0
  1 17  1  0  0  0  0
  2 10  1  0  0  0  0
  2 25  1  0  0  0  0
  3 22  1  0  0  0  0
  3 24  1  0  0  0  0
  4 17  2  0  0  0  0
  5 19  2  0  0  0  0
  6 22  2  0  0  0  0
  7 25  1  0  0  0  0
  7 32  1  0  0  0  0
  8  9  1  0  0  0  0
  8 19  1  0  0  0  0
  8 20  1  0  0  0  0
  9 10  1  0  0  0  0
  9 12  1  0  0  0  0
  9 33  1  0  0  0  0
 10 13  1  0  0  0  0
 10 34  1  0  0  0  0
 11 14  1  0  0  0  0
 11 15  1  0  0  0  0
 11 35  1  0  0  0  0
 12 18  1  0  0  0  0
 12 36  1  0  0  0  0
 12 37  1  0  0  0  0
 13 17  1  0  0  0  0
 13 38  1  0  0  0  0
 13 39  1  0  0  0  0
 14 21  1  0  0  0  0
 14 22  1  0  0  0  0
 14 40  1  0  0  0  0
 15 16  1  0  0  0  0
 15 41  1  0  0  0  0
 15 42  1  0  0  0  0
 16 23  1  0  0  0  0
 16 43  1  0  0  0  0
 16 44  1  0  0  0  0
 18 26  2  0  0  0  0
 18 27  1  0  0  0  0
 19 24  1  0  0  0  0
 20 45  1  0  0  0  0
 20 46  1  0  0  0  0
 20 47  1  0  0  0  0
 21 48  1  0  0  0  0
 21 49  1  0  0  0  0
 21 50  1  0  0  0  0
 23 28  1  0  0  0  0
 23 51  1  0  0  0  0
 23 52  1  0  0  0  0
 24 53  1  0  0  0  0
 24 54  1  0  0  0  0
 25 55  1  0  0  0  0
 25 56  1  0  0  0  0
 26 29  1  0  0  0  0
 26 57  1  0  0  0  0
 27 30  2  0  0  0  0
 27 58  1  0  0  0  0
 28 59  1  0  0  0  0
 28 60  1  0  0  0  0
 28 61  1  0  0  0  0
 29 31  2  0  0  0  0
 29 62  1  0  0  0  0
 30 31  1  0  0  0  0
 30 63  1  0  0  0  0
 31 64  1  0  0  0  0
 32 65  1  0  0  0  0
 32 66  1  0  0  0  0
 32 67  1  0  0  0  0
M  END
> <PUBCHEM_COMPOUND_CID>
44285866

> <PUBCHEM_CONFORMER_RMSD>
1

> <PUBCHEM_CONFORMER_DIVERSEORDER>
1
24
48
64
51
56
32
16
62
40
43
18
25
28
12
2
13
60
52
21
58
68
46
66
39
29
67
37
63
61
4
49
50
33
57
45
34
54
22
15
41
17
9
19
10
23
6
20
55
47
53
30
65
38
5
36
27
44
11
7
42
59
14
8
26
35
31
3

> <PUBCHEM_MMFF94_PARTIAL_CHARGES>
32
1 -0.43
10 0.28
11 0.28
12 0.14
13 0.06
14 0.06
17 0.66
18 -0.14
19 0.57
2 -0.56
20 0.3
22 0.66
24 0.34
25 0.56
26 -0.15
27 -0.15
29 -0.15
3 -0.43
30 -0.15
31 -0.15
32 0.28
4 -0.57
5 -0.57
57 0.15
58 0.15
6 -0.57
62 0.15
63 0.15
64 0.15
7 -0.56
8 -0.66
9 0.3

> <PUBCHEM_EFFECTIVE_ROTOR_COUNT>
9.8

> <PUBCHEM_PHARMACOPHORE_FEATURES>
7
1 2 acceptor
1 28 hydrophobe
1 4 acceptor
1 5 acceptor
1 6 acceptor
1 7 acceptor
6 18 26 27 29 30 31 rings

> <PUBCHEM_HEAVY_ATOM_COUNT>
32

> <PUBCHEM_ATOM_DEF_STEREO_COUNT>
4

> <PUBCHEM_ATOM_UDEF_STEREO_COUNT>
0

> <PUBCHEM_BOND_DEF_STEREO_COUNT>
0

> <PUBCHEM_BOND_UDEF_STEREO_COUNT>
0

> <PUBCHEM_ISOTOPIC_ATOM_COUNT>
0

> <PUBCHEM_COMPONENT_COUNT>
1

> <PUBCHEM_CACTVS_TAUTO_COUNT>
8

> <PUBCHEM_CONFORMER_ID>
02A3BFAA00000001

> <PUBCHEM_MMFF94_ENERGY>
75.26

> <PUBCHEM_FEATURE_SELFOVERLAP>
35.557

> <PUBCHEM_SHAPE_FINGERPRINT>
107951 10 17387677539001368788
11578080 2 17970652841790774797
12156800 1 15647633262002142649
12597179 24 18115587195983585173
12788726 201 17916309337927936730
14713325 29 17827643865555311613
15439362 3 18335416859546465333
23419403 2 17970939754538974113
3027735 51 18195254536337002948
35225 105 17258540679823952926
469060 322 17908427956838698411
59444896 2 17702125589718996041

> <PUBCHEM_SHAPE_MULTIPOLES>
612.48
6.82
6.23
2.6
0.02
0.98
1.39
0.84
-3.06
5.78
0.68
-0.98
1.09
-1.07

> <PUBCHEM_SHAPE_SELFOVERLAP>
1240.084

> <PUBCHEM_SHAPE_VOLUME>
354.1

> <PUBCHEM_COORDINATE_TYPE>
2
5
10

$$$$