14
 OpenBabel03292021423D

110114  0  0  0  0  0  0  0  0999 V2000
   -0.1871    5.6308    8.8720 C   0  0  0  0  0  0  0  0  0  0  0  0
    1.2041    5.7649    9.1253 O   0  0  0  0  0  0  0  0  0  0  0  0
    1.9720    5.6188    7.9328 C   0  0  0  0  0  0  0  0  0  0  0  0
    3.4506    5.7412    8.2786 C   0  0  0  0  0  0  0  0  0  0  0  0
    4.2193    5.6131    7.0868 O   0  0  0  0  0  0  0  0  0  0  0  0
    5.6172    5.7311    7.3457 C   0  0  0  0  0  0  0  0  0  0  0  0
    6.3536    5.5738    6.0231 C   0  0  0  0  0  0  0  0  0  0  0  0
    7.7562    5.6800    6.2260 O   0  0  0  0  0  0  0  0  0  0  0  0
    8.4635    5.5282    4.9910 C   0  0  0  0  0  0  0  0  0  0  0  0
    9.9410    5.6435    5.2963 C   0  0  0  0  0  0  0  0  0  0  0  0
   10.7315    5.4908    4.1158 O   0  0  0  0  0  0  0  0  0  0  0  0
   12.0870    5.6488    4.3204 C   0  0  0  0  0  0  0  0  0  0  0  0
   12.6336    5.8416    5.5955 C   0  0  0  0  0  0  0  0  0  0  0  0
   13.9903    6.0571    5.7566 C   0  0  0  0  0  0  0  0  0  0  0  0
   14.8358    6.0440    4.6472 C   0  0  0  0  0  0  0  0  0  0  0  0
   14.3135    5.8095    3.3719 C   0  0  0  0  0  0  0  0  0  0  0  0
   12.9360    5.6267    3.1937 C   0  0  0  0  0  0  0  0  0  0  0  0
   12.3472    5.4208    1.9681 O   0  0  0  0  0  0  0  0  0  0  0  0
   13.2006    5.4520    0.8277 C   0  0  0  0  0  0  0  0  0  0  0  0
   16.3091    6.2012    4.8976 C   0  0  0  0  0  0  0  0  0  0  0  0
   16.6534    7.2285    5.9045 N   0  0  0  0  0  0  0  0  0  0  0  0
   17.8991    6.8733    6.5936 C   0  0  0  0  0  0  0  0  0  0  0  0
   19.1007    6.7760    5.6424 C   0  0  0  0  0  0  0  0  0  0  0  0
   20.4160    6.4610    6.3098 C   0  0  0  0  0  0  0  0  0  0  0  0
   20.5252    6.1693    7.6727 C   0  0  0  0  0  0  0  0  0  0  0  0
   21.7549    5.8428    8.2349 C   0  0  0  0  0  0  0  0  0  0  0  0
   22.8998    5.7904    7.4483 C   0  0  0  0  0  0  0  0  0  0  0  0
   24.1594    5.4320    7.9660 N   0  0  0  0  0  0  0  0  0  0  0  0
   24.3901    4.8121    9.1880 C   0  0  0  0  0  0  0  0  0  0  0  0
   23.5547    4.3945    9.9713 O   0  0  0  0  0  0  0  0  0  0  0  0
   25.8270    4.5797    9.4999 C   0  0  0  0  0  0  0  0  0  0  0  0
   26.7969    5.4992    9.0940 C   0  0  0  0  0  0  0  0  0  0  0  0
   28.1449    5.2139    9.2985 C   0  0  0  0  0  0  0  0  0  0  0  0
   28.5245    4.0130    9.9196 C   0  0  0  0  0  0  0  0  0  0  0  0
   29.9799    3.8113   10.1043 C   0  0  0  0  0  0  0  0  0  0  0  0
   30.7969    4.1300    9.2684 O   0  0  0  0  0  0  0  0  0  0  0  0
   30.2995    3.2698   11.3017 O   0  0  0  0  0  0  0  0  0  0  0  0
   27.5563    3.1052   10.3814 C   0  0  0  0  0  0  0  0  0  0  0  0
   27.9299    1.8632   10.9661 N   0  0  0  0  0  0  0  0  0  0  0  0
   27.4447    1.4538   12.1982 C   0  0  0  0  0  0  0  0  0  0  0  0
   26.7186    2.1488   12.9023 O   0  0  0  0  0  0  0  0  0  0  0  0
   27.8842    0.1227   12.7136 C   0  0  0  0  0  0  0  0  0  0  0  0
   26.9869   -0.5607   13.5392 C   0  0  0  0  0  0  0  0  0  0  0  0
   27.2920   -1.8390   14.0165 C   0  0  0  0  0  0  0  0  0  0  0  0
   28.4918   -2.4609   13.7146 C   0  0  0  0  0  0  0  0  0  0  0  0
   28.6970   -3.7133   14.1526 N   0  0  0  0  0  0  0  0  0  0  0  0
   29.8851   -4.2938   13.8854 C   0  0  0  0  0  0  0  0  0  0  0  0
   30.9169   -3.6531   13.2293 C   0  0  0  0  0  0  0  0  0  0  0  0
   30.6942   -2.3580   12.7646 C   0  0  0  0  0  0  0  0  0  0  0  0
   29.4473   -1.7401   12.9649 C   0  0  0  0  0  0  0  0  0  0  0  0
   29.1341   -0.4545   12.4531 C   0  0  0  0  0  0  0  0  0  0  0  0
   26.1995    3.4103   10.1896 C   0  0  0  0  0  0  0  0  0  0  0  0
   22.8097    6.1131    6.0895 C   0  0  0  0  0  0  0  0  0  0  0  0
   21.5737    6.4318    5.5224 C   0  0  0  0  0  0  0  0  0  0  0  0
   15.5883    7.5044    6.8910 C   0  0  0  0  0  0  0  0  0  0  0  0
   14.5873    6.3666    7.0974 C   0  0  0  0  0  0  0  0  0  0  0  0
    1.3305    0.0458   -2.4305 O   0  0  0  0  0  0  0  0  0  0  0  0
    2.3782    0.1676   -1.8084 C   0  0  0  0  0  0  0  0  0  0  0  0
    2.9823   -0.9135   -1.2204 O   0  0  0  0  0  0  0  0  0  0  0  0
    3.1427    1.4777   -1.5875 C   0  0  0  0  0  0  0  0  0  0  0  0
    4.3061    1.2372   -0.9082 F   0  0  0  0  0  0  0  0  0  0  0  0
    3.4967    2.0966   -2.7438 F   0  0  0  0  0  0  0  0  0  0  0  0
    2.4499    2.3795   -0.8435 F   0  0  0  0  0  0  0  0  0  0  0  0
   -0.7219    5.7988    9.8103 H   0  0  0  0  0  0  0  0  0  0  0  0
   -0.4136    4.6214    8.5156 H   0  0  0  0  0  0  0  0  0  0  0  0
   -0.5200    6.3739    8.1411 H   0  0  0  0  0  0  0  0  0  0  0  0
    1.6936    6.3927    7.2068 H   0  0  0  0  0  0  0  0  0  0  0  0
    1.7763    4.6434    7.4702 H   0  0  0  0  0  0  0  0  0  0  0  0
    3.7314    4.9581    8.9927 H   0  0  0  0  0  0  0  0  0  0  0  0
    3.6440    6.7119    8.7500 H   0  0  0  0  0  0  0  0  0  0  0  0
    5.9405    4.9582    8.0538 H   0  0  0  0  0  0  0  0  0  0  0  0
    5.8418    6.7081    7.7911 H   0  0  0  0  0  0  0  0  0  0  0  0
    6.0211    6.3480    5.3223 H   0  0  0  0  0  0  0  0  0  0  0  0
    6.1164    4.5974    5.5853 H   0  0  0  0  0  0  0  0  0  0  0  0
    8.1621    6.3076    4.2830 H   0  0  0  0  0  0  0  0  0  0  0  0
    8.2468    4.5502    4.5477 H   0  0  0  0  0  0  0  0  0  0  0  0
   10.1944    4.8624    6.0255 H   0  0  0  0  0  0  0  0  0  0  0  0
   10.1139    6.6287    5.7515 H   0  0  0  0  0  0  0  0  0  0  0  0
   12.0269    5.8616    6.4934 H   0  0  0  0  0  0  0  0  0  0  0  0
   15.0045    5.7848    2.5364 H   0  0  0  0  0  0  0  0  0  0  0  0
   12.5854    5.2988   -0.0636 H   0  0  0  0  0  0  0  0  0  0  0  0
   13.9373    4.6414    0.8623 H   0  0  0  0  0  0  0  0  0  0  0  0
   13.6933    6.4256    0.7253 H   0  0  0  0  0  0  0  0  0  0  0  0
   16.8163    6.4563    3.9599 H   0  0  0  0  0  0  0  0  0  0  0  0
   16.6675    5.2078    5.2048 H   0  0  0  0  0  0  0  0  0  0  0  0
   17.7624    5.9284    7.1383 H   0  0  0  0  0  0  0  0  0  0  0  0
   18.1226    7.6480    7.3389 H   0  0  0  0  0  0  0  0  0  0  0  0
   19.2008    7.7275    5.1047 H   0  0  0  0  0  0  0  0  0  0  0  0
   18.9256    5.9902    4.8973 H   0  0  0  0  0  0  0  0  0  0  0  0
   19.6658    6.1800    8.3364 H   0  0  0  0  0  0  0  0  0  0  0  0
   21.7830    5.6407    9.3016 H   0  0  0  0  0  0  0  0  0  0  0  0
   24.9361    5.5228    7.3249 H   0  0  0  0  0  0  0  0  0  0  0  0
   26.5202    6.4443    8.6298 H   0  0  0  0  0  0  0  0  0  0  0  0
   28.8978    5.9331    8.9850 H   0  0  0  0  0  0  0  0  0  0  0  0
   29.5572    3.2643   11.9392 H   0  0  0  0  0  0  0  0  0  0  0  0
   28.7261    1.3806   10.5645 H   0  0  0  0  0  0  0  0  0  0  0  0
   26.0334   -0.1095   13.8089 H   0  0  0  0  0  0  0  0  0  0  0  0
   26.5724   -2.3620   14.6421 H   0  0  0  0  0  0  0  0  0  0  0  0
   29.9855   -5.3207   14.2273 H   0  0  0  0  0  0  0  0  0  0  0  0
   31.8666   -4.1531   13.0770 H   0  0  0  0  0  0  0  0  0  0  0  0
   31.4993   -1.8386   12.2509 H   0  0  0  0  0  0  0  0  0  0  0  0
   29.8855    0.0780   11.8758 H   0  0  0  0  0  0  0  0  0  0  0  0
   25.4259    2.7172   10.5134 H   0  0  0  0  0  0  0  0  0  0  0  0
   23.6839    6.0913    5.4462 H   0  0  0  0  0  0  0  0  0  0  0  0
   21.5133    6.6473    4.4569 H   0  0  0  0  0  0  0  0  0  0  0  0
   15.0430    8.3861    6.5256 H   0  0  0  0  0  0  0  0  0  0  0  0
   15.9965    7.8081    7.8634 H   0  0  0  0  0  0  0  0  0  0  0  0
   13.8127    6.6905    7.8024 H   0  0  0  0  0  0  0  0  0  0  0  0
   15.0688    5.4730    7.5107 H   0  0  0  0  0  0  0  0  0  0  0  0
    3.8146   -0.6685   -0.7575 H   0  0  0  0  0  0  0  0  0  0  0  0
  1  2  1  0  0  0  0
  1 64  1  0  0  0  0
  1 65  1  0  0  0  0
  1 66  1  0  0  0  0
  2  3  1  0  0  0  0
  3  4  1  0  0  0  0
  3 67  1  0  0  0  0
  3 68  1  0  0  0  0
  4  5  1  0  0  0  0
  4 69  1  0  0  0  0
  4 70  1  0  0  0  0
  5  6  1  0  0  0  0
  6  7  1  0  0  0  0
  6 71  1  0  0  0  0
  6 72  1  0  0  0  0
  7  8  1  0  0  0  0
  7 73  1  0  0  0  0
  7 74  1  0  0  0  0
  8  9  1  0  0  0  0
  9 10  1  0  0  0  0
  9 75  1  0  0  0  0
  9 76  1  0  0  0  0
 10 11  1  0  0  0  0
 10 77  1  0  0  0  0
 10 78  1  0  0  0  0
 11 12  1  0  0  0  0
 12 13  1  0  0  0  0
 12 17  2  0  0  0  0
 13 14  2  0  0  0  0
 13 79  1  0  0  0  0
 14 15  1  0  0  0  0
 14 56  1  0  0  0  0
 15 16  2  0  0  0  0
 15 20  1  0  0  0  0
 16 17  1  0  0  0  0
 16 80  1  0  0  0  0
 17 18  1  0  0  0  0
 18 19  1  0  0  0  0
 19 81  1  0  0  0  0
 19 82  1  0  0  0  0
 19 83  1  0  0  0  0
 20 21  1  0  0  0  0
 20 84  1  0  0  0  0
 20 85  1  0  0  0  0
 21 22  1  0  0  0  0
 21 55  1  0  0  0  0
 22 23  1  0  0  0  0
 22 86  1  0  0  0  0
 22 87  1  0  0  0  0
 23 24  1  0  0  0  0
 23 88  1  0  0  0  0
 23 89  1  0  0  0  0
 24 25  1  0  0  0  0
 24 54  2  0  0  0  0
 25 26  2  0  0  0  0
 25 90  1  0  0  0  0
 26 27  1  0  0  0  0
 26 91  1  0  0  0  0
 27 28  1  0  0  0  0
 27 53  2  0  0  0  0
 28 29  1  0  0  0  0
 28 92  1  0  0  0  0
 29 30  2  0  0  0  0
 29 31  1  0  0  0  0
 31 32  1  0  0  0  0
 31 52  2  0  0  0  0
 32 33  2  0  0  0  0
 32 93  1  0  0  0  0
 33 34  1  0  0  0  0
 33 94  1  0  0  0  0
 34 35  1  0  0  0  0
 34 38  2  0  0  0  0
 35 36  2  0  0  0  0
 35 37  1  0  0  0  0
 37 95  1  0  0  0  0
 38 39  1  0  0  0  0
 38 52  1  0  0  0  0
 39 40  1  0  0  0  0
 39 96  1  0  0  0  0
 40 41  2  0  0  0  0
 40 42  1  0  0  0  0
 42 43  1  0  0  0  0
 42 51  2  0  0  0  0
 43 44  2  0  0  0  0
 43 97  1  0  0  0  0
 44 45  1  0  0  0  0
 44 98  1  0  0  0  0
 45 46  1  0  0  0  0
 45 50  2  0  0  0  0
 46 47  2  0  0  0  0
 47 48  1  0  0  0  0
 47 99  1  0  0  0  0
 48 49  2  0  0  0  0
 48100  1  0  0  0  0
 49 50  1  0  0  0  0
 49101  1  0  0  0  0
 50 51  1  0  0  0  0
 51102  1  0  0  0  0
 52103  1  0  0  0  0
 53 54  1  0  0  0  0
 53104  1  0  0  0  0
 54105  1  0  0  0  0
 55 56  1  0  0  0  0
 55106  1  0  0  0  0
 55107  1  0  0  0  0
 56108  1  0  0  0  0
 56109  1  0  0  0  0
 57 58  2  0  0  0  0
 58 59  1  0  0  0  0
 58 60  1  0  0  0  0
 59110  1  0  0  0  0
 60 61  1  0  0  0  0
 60 62  1  0  0  0  0
 60 63  1  0  0  0  0
M  END
>  <Energy>
303.386

$$$$