1
 OpenBabel03292022233D

 95 97  0  0  1  0  0  0  0  0999 V2000
    2.9275   -5.5838    3.8938 C   0  0  0  0  0  0  0  0  0  0  0  0
    2.2278   -4.6346    2.9140 C   0  0  0  0  0  0  0  0  0  0  0  0
    1.8942   -5.3010    1.5690 C   0  0  0  0  0  0  0  0  0  0  0  0
    0.9028   -4.1937    3.5631 C   0  0  0  0  0  0  0  0  0  0  0  0
    3.0403   -3.4455    2.7224 O   0  0  0  0  0  0  0  0  0  0  0  0
    4.2755   -3.5828    2.1595 C   0  0  0  0  0  0  0  0  0  0  0  0
    4.7978   -4.6595    1.8978 O   0  0  0  0  0  0  0  0  0  0  0  0
    4.9718   -2.2344    1.9270 C   0  0  2  0  0  0  0  0  0  0  0  0
    4.4318   -1.4673    0.7028 C   0  0  0  0  0  0  0  0  0  0  0  0
    2.9075   -1.3182    0.7632 C   0  0  0  0  0  0  0  0  0  0  0  0
    2.2385   -0.5528   -0.3731 C   0  0  0  0  0  0  0  0  0  0  0  0
    2.3539   -1.2786   -1.7150 C   0  0  0  0  0  0  0  0  0  0  0  0
    1.5644   -0.6629   -2.7577 N   0  0  0  0  0  0  0  0  0  0  0  0
    0.1994   -0.6471   -2.7611 C   0  0  0  0  0  0  0  0  0  0  0  0
   -0.5153   -1.0732   -1.8698 O   0  0  0  0  0  0  0  0  0  0  0  0
   -0.2218   -0.0905   -3.9228 O   0  0  0  0  0  0  0  0  0  0  0  0
   -1.6377    0.0519   -4.0744 C   0  0  0  0  0  0  0  0  0  0  0  0
   -1.9587    1.5135   -4.2593 C   0  0  0  0  0  0  0  0  0  0  0  0
   -1.9797    2.0877   -5.5381 C   0  0  0  0  0  0  0  0  0  0  0  0
   -2.2633    3.4453   -5.7000 C   0  0  0  0  0  0  0  0  0  0  0  0
   -2.5218    4.2427   -4.5865 C   0  0  0  0  0  0  0  0  0  0  0  0
   -2.4944    3.6846   -3.3097 C   0  0  0  0  0  0  0  0  0  0  0  0
   -2.2099    2.3276   -3.1455 C   0  0  0  0  0  0  0  0  0  0  0  0
    6.4361   -2.4473    1.9224 N   0  0  0  0  0  0  0  0  0  0  0  0
    7.0972   -3.1083    0.8922 C   0  0  0  0  0  0  0  0  0  0  0  0
    6.5549   -3.3756   -0.1875 O   0  0  0  0  0  0  0  0  0  0  0  0
    8.5820   -3.3569    1.1443 C   0  0  2  0  0  0  0  0  0  0  0  0
    9.3233   -2.1222    0.5885 C   0  0  0  0  0  0  0  0  0  0  0  0
   10.7809   -2.5708    0.5164 C   0  0  1  0  0  0  0  0  0  0  0  0
   11.4012   -2.2965    1.7757 O   0  0  0  0  0  0  0  0  0  0  0  0
   12.8024   -2.5927    1.7683 C   0  0  0  0  0  0  0  0  0  0  0  0
   13.4187   -2.2924    3.1092 C   0  0  0  0  0  0  0  0  0  0  0  0
   14.4807   -3.0841    3.5746 C   0  0  0  0  0  0  0  0  0  0  0  0
   15.0818   -2.8149    4.8038 C   0  0  0  0  0  0  0  0  0  0  0  0
   14.6388   -1.7431    5.5738 C   0  0  0  0  0  0  0  0  0  0  0  0
   13.5966   -0.9390    5.1160 C   0  0  0  0  0  0  0  0  0  0  0  0
   12.9932   -1.2081    3.8869 C   0  0  0  0  0  0  0  0  0  0  0  0
   10.6705   -4.0684    0.2309 C   0  0  0  0  0  0  0  0  0  0  0  0
    9.2817   -4.4200    0.4364 N   0  0  0  0  0  0  0  0  0  0  0  0
    8.9497   -5.7359    0.2272 C   0  0  0  0  0  0  0  0  0  0  0  0
    9.7532   -6.4986   -0.3019 O   0  0  0  0  0  0  0  0  0  0  0  0
    7.6894   -6.0860    0.5968 O   0  0  0  0  0  0  0  0  0  0  0  0
    7.2031   -7.3866    0.1489 C   0  0  0  0  0  0  0  0  0  0  0  0
    8.0311   -8.5459    0.7339 C   0  0  0  0  0  0  0  0  0  0  0  0
    5.7573   -7.5266    0.6587 C   0  0  0  0  0  0  0  0  0  0  0  0
    7.1472   -7.4584   -1.3886 C   0  0  0  0  0  0  0  0  0  0  0  0
    2.3124   -6.4595    4.1131 H   0  0  0  0  0  0  0  0  0  0  0  0
    3.1489   -5.0577    4.8300 H   0  0  0  0  0  0  0  0  0  0  0  0
    3.8855   -5.9491    3.5182 H   0  0  0  0  0  0  0  0  0  0  0  0
    1.2484   -6.1743    1.7058 H   0  0  0  0  0  0  0  0  0  0  0  0
    2.7858   -5.6344    1.0321 H   0  0  0  0  0  0  0  0  0  0  0  0
    1.3826   -4.5970    0.9010 H   0  0  0  0  0  0  0  0  0  0  0  0
    0.2669   -5.0598    3.7852 H   0  0  0  0  0  0  0  0  0  0  0  0
    0.3369   -3.5174    2.9123 H   0  0  0  0  0  0  0  0  0  0  0  0
    1.0804   -3.6536    4.4997 H   0  0  0  0  0  0  0  0  0  0  0  0
    4.7952   -1.6317    2.8295 H   0  0  0  0  0  0  0  0  0  0  0  0
    4.9080   -0.4786    0.6607 H   0  0  0  0  0  0  0  0  0  0  0  0
    4.6977   -1.9775   -0.2258 H   0  0  0  0  0  0  0  0  0  0  0  0
    2.6352   -0.8459    1.7141 H   0  0  0  0  0  0  0  0  0  0  0  0
    2.4569   -2.3143    0.7506 H   0  0  0  0  0  0  0  0  0  0  0  0
    2.6280    0.4680   -0.4437 H   0  0  0  0  0  0  0  0  0  0  0  0
    1.1798   -0.4594   -0.1022 H   0  0  0  0  0  0  0  0  0  0  0  0
    2.0274   -2.3204   -1.6220 H   0  0  0  0  0  0  0  0  0  0  0  0
    3.3931   -1.2748   -2.0585 H   0  0  0  0  0  0  0  0  0  0  0  0
    1.9996   -0.4047   -3.6316 H   0  0  0  0  0  0  0  0  0  0  0  0
   -2.2204   -0.3585   -3.2416 H   0  0  0  0  0  0  0  0  0  0  0  0
   -1.9327   -0.5116   -4.9668 H   0  0  0  0  0  0  0  0  0  0  0  0
   -1.7743    1.4798   -6.4162 H   0  0  0  0  0  0  0  0  0  0  0  0
   -2.2801    3.8815   -6.6954 H   0  0  0  0  0  0  0  0  0  0  0  0
   -2.7404    5.2997   -4.7133 H   0  0  0  0  0  0  0  0  0  0  0  0
   -2.6921    4.3065   -2.4406 H   0  0  0  0  0  0  0  0  0  0  0  0
   -2.1846    1.9055   -2.1425 H   0  0  0  0  0  0  0  0  0  0  0  0
    6.8553   -2.5649    2.8349 H   0  0  0  0  0  0  0  0  0  0  0  0
    8.7724   -3.4808    2.2182 H   0  0  0  0  0  0  0  0  0  0  0  0
    9.1630   -1.2212    1.1871 H   0  0  0  0  0  0  0  0  0  0  0  0
    8.9688   -1.9197   -0.4336 H   0  0  0  0  0  0  0  0  0  0  0  0
   11.3200   -2.0417   -0.2781 H   0  0  0  0  0  0  0  0  0  0  0  0
   13.3110   -2.0075    0.9936 H   0  0  0  0  0  0  0  0  0  0  0  0
   12.9455   -3.6564    1.5553 H   0  0  0  0  0  0  0  0  0  0  0  0
   14.8418   -3.9241    2.9839 H   0  0  0  0  0  0  0  0  0  0  0  0
   15.8931   -3.4427    5.1630 H   0  0  0  0  0  0  0  0  0  0  0  0
   15.1047   -1.5351    6.5330 H   0  0  0  0  0  0  0  0  0  0  0  0
   13.2505   -0.1037    5.7188 H   0  0  0  0  0  0  0  0  0  0  0  0
   12.1793   -0.5738    3.5412 H   0  0  0  0  0  0  0  0  0  0  0  0
   11.2599   -4.6792    0.9230 H   0  0  0  0  0  0  0  0  0  0  0  0
   10.9586   -4.3161   -0.7944 H   0  0  0  0  0  0  0  0  0  0  0  0
    8.0260   -8.5216    1.8291 H   0  0  0  0  0  0  0  0  0  0  0  0
    9.0810   -8.5152    0.4338 H   0  0  0  0  0  0  0  0  0  0  0  0
    7.6428   -9.5161    0.4053 H   0  0  0  0  0  0  0  0  0  0  0  0
    5.7191   -7.6544    1.7459 H   0  0  0  0  0  0  0  0  0  0  0  0
    5.2519   -8.3836    0.1977 H   0  0  0  0  0  0  0  0  0  0  0  0
    5.1760   -6.6307    0.4209 H   0  0  0  0  0  0  0  0  0  0  0  0
    8.0170   -7.0117   -1.8754 H   0  0  0  0  0  0  0  0  0  0  0  0
    6.2767   -6.9139   -1.7730 H   0  0  0  0  0  0  0  0  0  0  0  0
    7.0664   -8.4960   -1.7308 H   0  0  0  0  0  0  0  0  0  0  0  0
  1  2  1  0  0  0  0
  1 47  1  0  0  0  0
  1 48  1  0  0  0  0
  1 49  1  0  0  0  0
  2  3  1  0  0  0  0
  2  4  1  0  0  0  0
  2  5  1  0  0  0  0
  3 50  1  0  0  0  0
  3 51  1  0  0  0  0
  3 52  1  0  0  0  0
  4 53  1  0  0  0  0
  4 54  1  0  0  0  0
  4 55  1  0  0  0  0
  5  6  1  0  0  0  0
  6  7  2  0  0  0  0
  8 24  1  0  0  0  0
  8  9  1  0  0  0  0
  8  6  1  0  0  0  0
  8 56  1  1  0  0  0
  9 10  1  0  0  0  0
  9 57  1  0  0  0  0
  9 58  1  0  0  0  0
 10 11  1  0  0  0  0
 10 59  1  0  0  0  0
 10 60  1  0  0  0  0
 11 12  1  0  0  0  0
 11 61  1  0  0  0  0
 11 62  1  0  0  0  0
 12 13  1  0  0  0  0
 12 63  1  0  0  0  0
 12 64  1  0  0  0  0
 13 14  1  0  0  0  0
 13 65  1  0  0  0  0
 14 15  2  0  0  0  0
 14 16  1  0  0  0  0
 16 17  1  0  0  0  0
 17 18  1  0  0  0  0
 17 66  1  0  0  0  0
 17 67  1  0  0  0  0
 18 19  1  0  0  0  0
 18 23  2  0  0  0  0
 19 20  2  0  0  0  0
 19 68  1  0  0  0  0
 20 21  1  0  0  0  0
 20 69  1  0  0  0  0
 21 22  2  0  0  0  0
 21 70  1  0  0  0  0
 22 23  1  0  0  0  0
 22 71  1  0  0  0  0
 23 72  1  0  0  0  0
 24 25  1  0  0  0  0
 24 73  1  0  0  0  0
 25 26  2  0  0  0  0
 25 27  1  0  0  0  0
 27 28  1  0  0  0  0
 27 39  1  0  0  0  0
 27 74  1  1  0  0  0
 28 29  1  0  0  0  0
 28 75  1  0  0  0  0
 28 76  1  0  0  0  0
 29 30  1  0  0  0  0
 29 38  1  0  0  0  0
 29 77  1  6  0  0  0
 30 31  1  0  0  0  0
 31 32  1  0  0  0  0
 31 78  1  0  0  0  0
 31 79  1  0  0  0  0
 32 33  1  0  0  0  0
 32 37  2  0  0  0  0
 33 34  2  0  0  0  0
 33 80  1  0  0  0  0
 34 35  1  0  0  0  0
 34 81  1  0  0  0  0
 35 36  2  0  0  0  0
 35 82  1  0  0  0  0
 36 37  1  0  0  0  0
 36 83  1  0  0  0  0
 37 84  1  0  0  0  0
 38 39  1  0  0  0  0
 38 85  1  0  0  0  0
 38 86  1  0  0  0  0
 39 40  1  0  0  0  0
 40 41  2  0  0  0  0
 40 42  1  0  0  0  0
 42 43  1  0  0  0  0
 43 44  1  0  0  0  0
 43 45  1  0  0  0  0
 43 46  1  0  0  0  0
 44 87  1  0  0  0  0
 44 88  1  0  0  0  0
 44 89  1  0  0  0  0
 45 90  1  0  0  0  0
 45 91  1  0  0  0  0
 45 92  1  0  0  0  0
 46 93  1  0  0  0  0
 46 94  1  0  0  0  0
 46 95  1  0  0  0  0
M  END
>  <Energy>
22.0681

$$$$