102340687
  -OEChem-03242010103D

 47 49  0     0  0  0  0  0  0999 V2000
    1.1418    1.6883    1.8746 F   0  0  0  0  0  0  0  0  0  0  0  0
   -3.0227   -2.6433    0.0945 O   0  0  0  0  0  0  0  0  0  0  0  0
   -5.0594    2.4551   -0.4249 O   0  0  0  0  0  0  0  0  0  0  0  0
   -6.7085    0.3559    0.3494 O   0  0  0  0  0  0  0  0  0  0  0  0
   -0.9553   -1.3562   -1.5881 O   0  0  0  0  0  0  0  0  0  0  0  0
   -0.3549    0.1716    0.0955 N   0  0  0  0  0  0  0  0  0  0  0  0
    7.3126   -0.2283   -1.2673 N   0  0  0  0  0  0  0  0  0  0  0  0
   -2.6872   -0.3257   -0.4261 C   0  0  0  0  0  0  0  0  0  0  0  0
    1.0399    0.1421    0.0742 C   0  0  0  0  0  0  0  0  0  0  0  0
   -3.5147   -1.3792   -0.0377 C   0  0  0  0  0  0  0  0  0  0  0  0
    3.8286    0.0801    0.0280 C   0  0  0  0  0  0  0  0  0  0  0  0
   -3.2101    0.9611   -0.5551 C   0  0  0  0  0  0  0  0  0  0  0  0
   -1.2454   -0.5530   -0.7079 C   0  0  0  0  0  0  0  0  0  0  0  0
   -4.5607    1.1942   -0.2955 C   0  0  0  0  0  0  0  0  0  0  0  0
   -5.3881    0.1406    0.0930 C   0  0  0  0  0  0  0  0  0  0  0  0
   -4.8652   -1.1461    0.2218 C   0  0  0  0  0  0  0  0  0  0  0  0
    1.7697    0.9136    0.9784 C   0  0  0  0  0  0  0  0  0  0  0  0
    1.7044   -0.6605   -0.8531 C   0  0  0  0  0  0  0  0  0  0  0  0
    3.1641    0.8825    0.9554 C   0  0  0  0  0  0  0  0  0  0  0  0
    3.0987   -0.6915   -0.8763 C   0  0  0  0  0  0  0  0  0  0  0  0
    5.2746    0.0486    0.0033 C   0  0  0  0  0  0  0  0  0  0  0  0
    6.0160    0.2531    1.1618 C   0  0  0  0  0  0  0  0  0  0  0  0
    5.9645   -0.1860   -1.1752 C   0  0  0  0  0  0  0  0  0  0  0  0
    7.4049    0.2171    1.1071 C   0  0  0  0  0  0  0  0  0  0  0  0
   -2.5151   -3.0097    1.3759 C   0  0  0  0  0  0  0  0  0  0  0  0
   -4.1467    3.4751   -0.8262 C   0  0  0  0  0  0  0  0  0  0  0  0
    7.9995   -0.0251   -0.1208 C   0  0  0  0  0  0  0  0  0  0  0  0
   -7.4852   -0.7745    0.7413 C   0  0  0  0  0  0  0  0  0  0  0  0
   -2.5225    1.7403   -0.8672 H   0  0  0  0  0  0  0  0  0  0  0  0
   -0.7622    0.7854    0.7983 H   0  0  0  0  0  0  0  0  0  0  0  0
   -5.4550   -2.0071    0.5185 H   0  0  0  0  0  0  0  0  0  0  0  0
    1.2117   -1.2862   -1.5837 H   0  0  0  0  0  0  0  0  0  0  0  0
    3.6915    1.5190    1.6605 H   0  0  0  0  0  0  0  0  0  0  0  0
    3.5756   -1.3498   -1.5976 H   0  0  0  0  0  0  0  0  0  0  0  0
    5.5529    0.4161    2.1309 H   0  0  0  0  0  0  0  0  0  0  0  0
    5.4697   -0.3281   -2.1308 H   0  0  0  0  0  0  0  0  0  0  0  0
    8.0035    0.3673    1.9982 H   0  0  0  0  0  0  0  0  0  0  0  0
   -2.1394   -4.0347    1.3147 H   0  0  0  0  0  0  0  0  0  0  0  0
   -3.3106   -2.9730    2.1269 H   0  0  0  0  0  0  0  0  0  0  0  0
   -1.6908   -2.3527    1.6704 H   0  0  0  0  0  0  0  0  0  0  0  0
   -4.7124    4.4114   -0.8761 H   0  0  0  0  0  0  0  0  0  0  0  0
   -3.3541    3.6228   -0.0847 H   0  0  0  0  0  0  0  0  0  0  0  0
   -3.7507    3.2903   -1.8306 H   0  0  0  0  0  0  0  0  0  0  0  0
    9.0796   -0.0648   -0.2166 H   0  0  0  0  0  0  0  0  0  0  0  0
   -8.5086   -0.4208    0.9047 H   0  0  0  0  0  0  0  0  0  0  0  0
   -7.1383   -1.1927    1.6924 H   0  0  0  0  0  0  0  0  0  0  0  0
   -7.5326   -1.5269   -0.0534 H   0  0  0  0  0  0  0  0  0  0  0  0
  1 17  1  0  0  0  0
  2 10  1  0  0  0  0
  2 25  1  0  0  0  0
  3 14  1  0  0  0  0
  3 26  1  0  0  0  0
  4 15  1  0  0  0  0
  4 28  1  0  0  0  0
  5 13  2  0  0  0  0
  6  9  1  0  0  0  0
  6 13  1  0  0  0  0
  6 30  1  0  0  0  0
  7 23  1  0  0  0  0
  7 27  2  0  0  0  0
  8 10  1  0  0  0  0
  8 12  2  0  0  0  0
  8 13  1  0  0  0  0
  9 17  2  0  0  0  0
  9 18  1  0  0  0  0
 10 16  2  0  0  0  0
 11 19  2  0  0  0  0
 11 20  1  0  0  0  0
 11 21  1  0  0  0  0
 12 14  1  0  0  0  0
 12 29  1  0  0  0  0
 14 15  2  0  0  0  0
 15 16  1  0  0  0  0
 16 31  1  0  0  0  0
 17 19  1  0  0  0  0
 18 20  2  0  0  0  0
 18 32  1  0  0  0  0
 19 33  1  0  0  0  0
 20 34  1  0  0  0  0
 21 22  1  0  0  0  0
 21 23  2  0  0  0  0
 22 24  2  0  0  0  0
 22 35  1  0  0  0  0
 23 36  1  0  0  0  0
 24 27  1  0  0  0  0
 24 37  1  0  0  0  0
 25 38  1  0  0  0  0
 25 39  1  0  0  0  0
 25 40  1  0  0  0  0
 26 41  1  0  0  0  0
 26 42  1  0  0  0  0
 26 43  1  0  0  0  0
 27 44  1  0  0  0  0
 28 45  1  0  0  0  0
 28 46  1  0  0  0  0
 28 47  1  0  0  0  0
M  END
> <PUBCHEM_COMPOUND_CID>
102340687

> <PUBCHEM_CONFORMER_RMSD>
0.8

> <PUBCHEM_CONFORMER_DIVERSEORDER>
1
47
43
23
46
28
14
44
37
32
12
34
7
35
33
40
2
36
13
50
8
20
41
49
25
24
26
39
45
4
15
6
17
31
18
38
30
11
27
21
9
48
42
16
22
29
5
19
10
3

> <PUBCHEM_MMFF94_PARTIAL_CHARGES>
36
1 -0.19
10 0.08
12 -0.15
13 0.54
14 0.08
15 0.08
16 -0.15
17 0.19
18 -0.15
19 -0.15
2 -0.36
20 -0.15
22 -0.15
23 0.16
24 -0.15
25 0.28
26 0.28
27 0.16
28 0.28
29 0.15
3 -0.36
30 0.37
31 0.15
32 0.15
33 0.15
34 0.15
35 0.15
36 0.15
37 0.15
4 -0.36
44 0.15
5 -0.57
6 -0.55
7 -0.62
8 0.09
9 0.12

> <PUBCHEM_EFFECTIVE_ROTOR_COUNT>
7

> <PUBCHEM_PHARMACOPHORE_FEATURES>
9
1 2 acceptor
1 3 acceptor
1 4 acceptor
1 5 acceptor
1 6 donor
1 7 acceptor
6 7 21 22 23 24 27 rings
6 8 10 12 14 15 16 rings
6 9 11 17 18 19 20 rings

> <PUBCHEM_HEAVY_ATOM_COUNT>
28

> <PUBCHEM_ATOM_DEF_STEREO_COUNT>
0

> <PUBCHEM_ATOM_UDEF_STEREO_COUNT>
0

> <PUBCHEM_BOND_DEF_STEREO_COUNT>
0

> <PUBCHEM_BOND_UDEF_STEREO_COUNT>
0

> <PUBCHEM_ISOTOPIC_ATOM_COUNT>
0

> <PUBCHEM_COMPONENT_COUNT>
1

> <PUBCHEM_CACTVS_TAUTO_COUNT>
5

> <PUBCHEM_CONFORMER_ID>
0619984F00000001

> <PUBCHEM_MMFF94_ENERGY>
121.1337

> <PUBCHEM_FEATURE_SELFOVERLAP>
45.679

> <PUBCHEM_SHAPE_FINGERPRINT>
10 15 18411980295352724032
10299344 5 17530964696237832258
10319926 262 18338225063656071834
10411042 1 18047475810505364051
10670039 82 18260542308491743565
10940486 97 18188773975599352174
11089746 13 14333406770550742298
11315181 36 17603588543169619957
11524674 6 18060137669259805910
12236239 1 16660361476332083596
12516196 113 17060618906521602984
12596602 18 16805611408243515401
13073987 5 18263081033220877235
13402501 40 18202282498560330665
13914758 101 14620805880977240595
14251764 18 18333729121934530987
14856354 85 18041001768852652991
14933364 13 18410575102539501332
15021287 119 16660368068980451860
15183329 4 18334857212485314490
15361156 5 18266743656544739783
15419008 47 18202842149599769432
15927050 60 18272083907539686278
17093844 174 18272082820948681242
17844677 252 18335703888094795592
18608769 82 18410015476933335555
21033648 29 17916852595308736680
21315759 40 16877662361660370344
21792961 116 18201722808718929486
220451 1 17530961393861662274
23035841 295 17821726156751887058
23516275 137 17823147726682326842
23522609 53 17241066322645669852
23536379 177 18113335298118634528
23559900 14 18340484559956075667
23569914 152 16264340224865909508
23569943 247 15793397554880546896
249057 3 18260548960736364421
335352 9 17632857555427786988
3545911 37 18273215296265662167
3633792 109 15554179081419475071
4073 2 18187930637987198218
4325135 7 11314025781696325747
5265222 85 18263934400689904334
58260988 114 15285939012841605147
59755656 215 18202566147101599886
59755656 520 17676203597792384347
7226269 152 18343581811155138753

> <PUBCHEM_SHAPE_MULTIPOLES>
535.51
21.47
2.25
1.25
18.21
0.52
0.12
1.49
1.39
-5.31
0.14
1.22
-0.05
1.49

> <PUBCHEM_SHAPE_SELFOVERLAP>
1165.604

> <PUBCHEM_SHAPE_VOLUME>
293.4

> <PUBCHEM_COORDINATE_TYPE>
2
5
10

$$$$