102340688
  -OEChem-03242010103D

 47 49  0     0  0  0  0  0  0999 V2000
    1.1457    1.6840    1.8683 F   0  0  0  0  0  0  0  0  0  0  0  0
   -3.0247   -2.6433    0.0913 O   0  0  0  0  0  0  0  0  0  0  0  0
   -5.0603    2.4568   -0.4161 O   0  0  0  0  0  0  0  0  0  0  0  0
   -6.7086    0.3572    0.3588 O   0  0  0  0  0  0  0  0  0  0  0  0
   -0.9605   -1.3546   -1.5941 O   0  0  0  0  0  0  0  0  0  0  0  0
   -0.3556    0.1704    0.0904 N   0  0  0  0  0  0  0  0  0  0  0  0
    8.0678   -0.0161   -0.0672 N   0  0  0  0  0  0  0  0  0  0  0  0
   -2.6893   -0.3250   -0.4267 C   0  0  0  0  0  0  0  0  0  0  0  0
    1.0391    0.1403    0.0659 C   0  0  0  0  0  0  0  0  0  0  0  0
    3.8277    0.0771    0.0133 C   0  0  0  0  0  0  0  0  0  0  0  0
   -3.5165   -1.3788   -0.0380 C   0  0  0  0  0  0  0  0  0  0  0  0
   -3.2120    0.9621   -0.5527 C   0  0  0  0  0  0  0  0  0  0  0  0
   -1.2483   -0.5526   -0.7120 C   0  0  0  0  0  0  0  0  0  0  0  0
   -4.5618    1.1955   -0.2897 C   0  0  0  0  0  0  0  0  0  0  0  0
   -5.3889    0.1417    0.0992 C   0  0  0  0  0  0  0  0  0  0  0  0
    1.7713    0.9103    0.9696 C   0  0  0  0  0  0  0  0  0  0  0  0
    1.7011   -0.6612   -0.8641 C   0  0  0  0  0  0  0  0  0  0  0  0
   -4.8663   -1.1454    0.2250 C   0  0  0  0  0  0  0  0  0  0  0  0
    3.1656    0.8785    0.9434 C   0  0  0  0  0  0  0  0  0  0  0  0
    3.0954   -0.6927   -0.8905 C   0  0  0  0  0  0  0  0  0  0  0  0
    5.2736    0.0451   -0.0147 C   0  0  0  0  0  0  0  0  0  0  0  0
    5.9442   -0.1907   -1.2097 C   0  0  0  0  0  0  0  0  0  0  0  0
    5.9984    0.2503    1.1541 C   0  0  0  0  0  0  0  0  0  0  0  0
    7.3294   -0.2111   -1.1829 C   0  0  0  0  0  0  0  0  0  0  0  0
    7.3812    0.2102    1.0752 C   0  0  0  0  0  0  0  0  0  0  0  0
   -2.5144   -3.0117    1.3710 C   0  0  0  0  0  0  0  0  0  0  0  0
   -4.1480    3.4770   -0.8180 C   0  0  0  0  0  0  0  0  0  0  0  0
   -7.4849   -0.7734    0.7508 C   0  0  0  0  0  0  0  0  0  0  0  0
   -2.5247    1.7415   -0.8651 H   0  0  0  0  0  0  0  0  0  0  0  0
   -0.7611    0.7834    0.7949 H   0  0  0  0  0  0  0  0  0  0  0  0
   -5.4558   -2.0066    0.5217 H   0  0  0  0  0  0  0  0  0  0  0  0
    1.2065   -1.2860   -1.5941 H   0  0  0  0  0  0  0  0  0  0  0  0
    3.6932    1.5158    1.6475 H   0  0  0  0  0  0  0  0  0  0  0  0
    3.5686   -1.3525   -1.6128 H   0  0  0  0  0  0  0  0  0  0  0  0
    5.4424   -0.3300   -2.1610 H   0  0  0  0  0  0  0  0  0  0  0  0
    5.5395    0.4107    2.1236 H   0  0  0  0  0  0  0  0  0  0  0  0
    7.9004   -0.3838   -2.0893 H   0  0  0  0  0  0  0  0  0  0  0  0
    7.9928    0.3571    1.9593 H   0  0  0  0  0  0  0  0  0  0  0  0
   -2.1394   -4.0368    1.3076 H   0  0  0  0  0  0  0  0  0  0  0  0
   -3.3081   -2.9756    2.1239 H   0  0  0  0  0  0  0  0  0  0  0  0
   -1.6890   -2.3556    1.6646 H   0  0  0  0  0  0  0  0  0  0  0  0
   -4.7134    4.4136   -0.8653 H   0  0  0  0  0  0  0  0  0  0  0  0
   -3.3537    3.6233   -0.0781 H   0  0  0  0  0  0  0  0  0  0  0  0
   -3.7543    3.2934   -1.8236 H   0  0  0  0  0  0  0  0  0  0  0  0
   -8.5078   -0.4195    0.9171 H   0  0  0  0  0  0  0  0  0  0  0  0
   -7.1361   -1.1931    1.7006 H   0  0  0  0  0  0  0  0  0  0  0  0
   -7.5345   -1.5246   -0.0448 H   0  0  0  0  0  0  0  0  0  0  0  0
  1 16  1  0  0  0  0
  2 11  1  0  0  0  0
  2 26  1  0  0  0  0
  3 14  1  0  0  0  0
  3 27  1  0  0  0  0
  4 15  1  0  0  0  0
  4 28  1  0  0  0  0
  5 13  2  0  0  0  0
  6  9  1  0  0  0  0
  6 13  1  0  0  0  0
  6 30  1  0  0  0  0
  7 24  2  0  0  0  0
  7 25  1  0  0  0  0
  8 11  1  0  0  0  0
  8 12  2  0  0  0  0
  8 13  1  0  0  0  0
  9 16  2  0  0  0  0
  9 17  1  0  0  0  0
 10 19  2  0  0  0  0
 10 20  1  0  0  0  0
 10 21  1  0  0  0  0
 11 18  2  0  0  0  0
 12 14  1  0  0  0  0
 12 29  1  0  0  0  0
 14 15  2  0  0  0  0
 15 18  1  0  0  0  0
 16 19  1  0  0  0  0
 17 20  2  0  0  0  0
 17 32  1  0  0  0  0
 18 31  1  0  0  0  0
 19 33  1  0  0  0  0
 20 34  1  0  0  0  0
 21 22  2  0  0  0  0
 21 23  1  0  0  0  0
 22 24  1  0  0  0  0
 22 35  1  0  0  0  0
 23 25  2  0  0  0  0
 23 36  1  0  0  0  0
 24 37  1  0  0  0  0
 25 38  1  0  0  0  0
 26 39  1  0  0  0  0
 26 40  1  0  0  0  0
 26 41  1  0  0  0  0
 27 42  1  0  0  0  0
 27 43  1  0  0  0  0
 27 44  1  0  0  0  0
 28 45  1  0  0  0  0
 28 46  1  0  0  0  0
 28 47  1  0  0  0  0
M  END
> <PUBCHEM_COMPOUND_CID>
102340688

> <PUBCHEM_CONFORMER_RMSD>
0.8

> <PUBCHEM_CONFORMER_DIVERSEORDER>
1
21
5
16
2
22
4
11
10
8
18
13
7
23
20
3
12
19
17
14
9
6
15

> <PUBCHEM_MMFF94_PARTIAL_CHARGES>
36
1 -0.19
11 0.08
12 -0.15
13 0.54
14 0.08
15 0.08
16 0.19
17 -0.15
18 -0.15
19 -0.15
2 -0.36
20 -0.15
22 -0.15
23 -0.15
24 0.16
25 0.16
26 0.28
27 0.28
28 0.28
29 0.15
3 -0.36
30 0.37
31 0.15
32 0.15
33 0.15
34 0.15
35 0.15
36 0.15
37 0.15
38 0.15
4 -0.36
5 -0.57
6 -0.55
7 -0.62
8 0.09
9 0.12

> <PUBCHEM_EFFECTIVE_ROTOR_COUNT>
7

> <PUBCHEM_PHARMACOPHORE_FEATURES>
9
1 2 acceptor
1 3 acceptor
1 4 acceptor
1 5 acceptor
1 6 donor
1 7 acceptor
6 7 21 22 23 24 25 rings
6 8 11 12 14 15 18 rings
6 9 10 16 17 19 20 rings

> <PUBCHEM_HEAVY_ATOM_COUNT>
28

> <PUBCHEM_ATOM_DEF_STEREO_COUNT>
0

> <PUBCHEM_ATOM_UDEF_STEREO_COUNT>
0

> <PUBCHEM_BOND_DEF_STEREO_COUNT>
0

> <PUBCHEM_BOND_UDEF_STEREO_COUNT>
0

> <PUBCHEM_ISOTOPIC_ATOM_COUNT>
0

> <PUBCHEM_COMPONENT_COUNT>
1

> <PUBCHEM_CACTVS_TAUTO_COUNT>
6

> <PUBCHEM_CONFORMER_ID>
0619985000000001

> <PUBCHEM_MMFF94_ENERGY>
121.8827

> <PUBCHEM_FEATURE_SELFOVERLAP>
45.679

> <PUBCHEM_SHAPE_FINGERPRINT>
10 15 18341047506078805288
10299344 5 17530964696227282754
10319926 262 18338226163151881842
10411042 1 18047475810494834067
10670039 82 18260543403692592717
10940486 97 18188775075105692214
11089746 13 14333406770550742290
11315181 36 17675927612179003357
11524674 6 18060420243816716143
12236239 1 16732700541062336884
12516196 113 17060618906516321728
12596602 18 16805611408243515401
13073987 5 18263081033226151979
13402501 40 18202282498544506421
13914758 101 14620523306499451659
14251764 18 18334010596927065883
14856354 85 18041284343340991431
14933364 13 18410575098228696836
15021287 119 16660649543957156028
15183329 4 18334857212511668714
15361156 5 18266743660839700575
15419008 47 18202842149594494672
15927050 60 18272085007035496302
17093844 174 18272082820948687722
17844677 252 18335704987606416868
18608769 82 18410296951910052683
21033648 29 17916852595314011424
21315759 40 16877662365944788106
21792961 116 18201723908230570278
220451 1 17530961393861668746
23035841 295 17822007631712773442
23516275 137 17823429201616839474
23522609 53 17241066322635120348
23536379 177 18113335298113353256
23559900 14 18340766034938061067
23569914 152 16120789081881072604
23569943 247 15865736623884603496
249057 3 18260550060258548205
335352 9 17632577179973240644
3545911 37 18273215296270936935
3633792 109 15626236675452141255
4073 2 18187930637987204698
4325135 7 11025795405528815675
5265222 85 18263934400689904350
58260988 114 15213601043333261105
59755656 215 18202284672093266678
59755656 520 17676485072774376235

> <PUBCHEM_SHAPE_MULTIPOLES>
535.51
21.38
2.25
1.25
17.68
0.52
0.12
1.48
1.27
-5.3
0.14
1.26
-0.04
1.51

> <PUBCHEM_SHAPE_SELFOVERLAP>
1165.885

> <PUBCHEM_SHAPE_VOLUME>
293.3

> <PUBCHEM_COORDINATE_TYPE>
2
5
10

$$$$