90655524
  -OEChem-03242010103D

 60 62  0     0  0  0  0  0  0999 V2000
   -6.7390   -2.1158   -0.4786 O   0  0  0  0  0  0  0  0  0  0  0  0
    2.3971   -3.2370    0.3342 O   0  0  0  0  0  0  0  0  0  0  0  0
   -4.6450   -3.9198   -0.7761 O   0  0  0  0  0  0  0  0  0  0  0  0
    4.9558   -4.2154    0.8070 O   0  0  0  0  0  0  0  0  0  0  0  0
   -4.4476    2.0254    1.4029 O   0  0  0  0  0  0  0  0  0  0  0  0
    5.1072    1.7211   -1.3878 O   0  0  0  0  0  0  0  0  0  0  0  0
   -0.7654    3.9535    0.3416 C   0  0  0  0  0  0  0  0  0  0  0  0
    1.5534    3.8800   -0.3331 C   0  0  0  0  0  0  0  0  0  0  0  0
    0.3722    3.2197    0.0051 C   0  0  0  0  0  0  0  0  0  0  0  0
   -3.8792   -0.0032    0.3702 C   0  0  0  0  0  0  0  0  0  0  0  0
    4.4122   -0.2649   -0.3495 C   0  0  0  0  0  0  0  0  0  0  0  0
   -0.7217    5.3478    0.3397 C   0  0  0  0  0  0  0  0  0  0  0  0
    1.5971    5.2743   -0.3351 C   0  0  0  0  0  0  0  0  0  0  0  0
   -1.9976    3.2660    0.6947 C   0  0  0  0  0  0  0  0  0  0  0  0
    2.7400    3.1153   -0.6839 C   0  0  0  0  0  0  0  0  0  0  0  0
   -5.1915   -0.4130    0.1338 C   0  0  0  0  0  0  0  0  0  0  0  0
    3.3066   -1.1020   -0.1987 C   0  0  0  0  0  0  0  0  0  0  0  0
   -5.4529   -1.7279   -0.2513 C   0  0  0  0  0  0  0  0  0  0  0  0
    3.4850   -2.4298    0.1899 C   0  0  0  0  0  0  0  0  0  0  0  0
   -3.6011    1.3947    0.7794 C   0  0  0  0  0  0  0  0  0  0  0  0
    4.2227    1.1466   -0.7628 C   0  0  0  0  0  0  0  0  0  0  0  0
   -2.8283   -0.9084    0.2212 C   0  0  0  0  0  0  0  0  0  0  0  0
    5.6962   -0.7556   -0.1120 C   0  0  0  0  0  0  0  0  0  0  0  0
   -4.4021   -2.6332   -0.3999 C   0  0  0  0  0  0  0  0  0  0  0  0
    4.7689   -2.9204    0.4277 C   0  0  0  0  0  0  0  0  0  0  0  0
    0.4595    6.0081    0.0011 C   0  0  0  0  0  0  0  0  0  0  0  0
   -2.2941    1.9856    0.3775 C   0  0  0  0  0  0  0  0  0  0  0  0
    2.9554    1.8196   -0.3630 C   0  0  0  0  0  0  0  0  0  0  0  0
   -3.0898   -2.2235   -0.1636 C   0  0  0  0  0  0  0  0  0  0  0  0
    5.8746   -2.0833    0.2769 C   0  0  0  0  0  0  0  0  0  0  0  0
   -7.7537   -1.1287   -0.3042 C   0  0  0  0  0  0  0  0  0  0  0  0
    1.1207   -2.6569    0.0716 C   0  0  0  0  0  0  0  0  0  0  0  0
   -3.5154   -4.7812   -0.9052 C   0  0  0  0  0  0  0  0  0  0  0  0
    6.2998   -4.6377    1.0302 C   0  0  0  0  0  0  0  0  0  0  0  0
    0.3381    2.1355    0.0065 H   0  0  0  0  0  0  0  0  0  0  0  0
   -1.5984    5.9370    0.5978 H   0  0  0  0  0  0  0  0  0  0  0  0
    2.5090    5.8066   -0.5947 H   0  0  0  0  0  0  0  0  0  0  0  0
   -5.9704    0.3317    0.2576 H   0  0  0  0  0  0  0  0  0  0  0  0
    2.3278   -0.7077   -0.4391 H   0  0  0  0  0  0  0  0  0  0  0  0
   -2.7130    3.8557    1.2640 H   0  0  0  0  0  0  0  0  0  0  0  0
    3.4897    3.6564   -1.2571 H   0  0  0  0  0  0  0  0  0  0  0  0
   -1.7968   -0.6418    0.4310 H   0  0  0  0  0  0  0  0  0  0  0  0
    6.5685   -0.1163   -0.2207 H   0  0  0  0  0  0  0  0  0  0  0  0
    0.4935    7.0937   -0.0005 H   0  0  0  0  0  0  0  0  0  0  0  0
   -1.6297    1.3909   -0.2352 H   0  0  0  0  0  0  0  0  0  0  0  0
    2.2564    1.2745    0.2572 H   0  0  0  0  0  0  0  0  0  0  0  0
   -2.2264   -2.8735   -0.2519 H   0  0  0  0  0  0  0  0  0  0  0  0
    6.8996   -2.3950    0.4450 H   0  0  0  0  0  0  0  0  0  0  0  0
   -8.7120   -1.6104   -0.5248 H   0  0  0  0  0  0  0  0  0  0  0  0
   -7.6423   -0.3043   -1.0168 H   0  0  0  0  0  0  0  0  0  0  0  0
   -7.8057   -0.7812    0.7333 H   0  0  0  0  0  0  0  0  0  0  0  0
    0.3723   -3.4365    0.2488 H   0  0  0  0  0  0  0  0  0  0  0  0
    1.0205   -2.3567   -0.9771 H   0  0  0  0  0  0  0  0  0  0  0  0
    0.8948   -1.8400    0.7657 H   0  0  0  0  0  0  0  0  0  0  0  0
   -3.0040   -4.9224    0.0531 H   0  0  0  0  0  0  0  0  0  0  0  0
   -3.8920   -5.7626   -1.2120 H   0  0  0  0  0  0  0  0  0  0  0  0
   -2.8360   -4.4407   -1.6941 H   0  0  0  0  0  0  0  0  0  0  0  0
    6.8969   -4.5850    0.1135 H   0  0  0  0  0  0  0  0  0  0  0  0
    6.7615   -4.0927    1.8606 H   0  0  0  0  0  0  0  0  0  0  0  0
    6.2617   -5.6918    1.3243 H   0  0  0  0  0  0  0  0  0  0  0  0
  1 18  1  0  0  0  0
  1 31  1  0  0  0  0
  2 19  1  0  0  0  0
  2 32  1  0  0  0  0
  3 24  1  0  0  0  0
  3 33  1  0  0  0  0
  4 25  1  0  0  0  0
  4 34  1  0  0  0  0
  5 20  2  0  0  0  0
  6 21  2  0  0  0  0
  7  9  2  0  0  0  0
  7 12  1  0  0  0  0
  7 14  1  0  0  0  0
  8  9  1  0  0  0  0
  8 13  2  0  0  0  0
  8 15  1  0  0  0  0
  9 35  1  0  0  0  0
 10 16  2  0  0  0  0
 10 20  1  0  0  0  0
 10 22  1  0  0  0  0
 11 17  2  0  0  0  0
 11 21  1  0  0  0  0
 11 23  1  0  0  0  0
 12 26  2  0  0  0  0
 12 36  1  0  0  0  0
 13 26  1  0  0  0  0
 13 37  1  0  0  0  0
 14 27  2  0  0  0  0
 14 40  1  0  0  0  0
 15 28  2  0  0  0  0
 15 41  1  0  0  0  0
 16 18  1  0  0  0  0
 16 38  1  0  0  0  0
 17 19  1  0  0  0  0
 17 39  1  0  0  0  0
 18 24  2  0  0  0  0
 19 25  2  0  0  0  0
 20 27  1  0  0  0  0
 21 28  1  0  0  0  0
 22 29  2  0  0  0  0
 22 42  1  0  0  0  0
 23 30  2  0  0  0  0
 23 43  1  0  0  0  0
 24 29  1  0  0  0  0
 25 30  1  0  0  0  0
 26 44  1  0  0  0  0
 27 45  1  0  0  0  0
 28 46  1  0  0  0  0
 29 47  1  0  0  0  0
 30 48  1  0  0  0  0
 31 49  1  0  0  0  0
 31 50  1  0  0  0  0
 31 51  1  0  0  0  0
 32 52  1  0  0  0  0
 32 53  1  0  0  0  0
 32 54  1  0  0  0  0
 33 55  1  0  0  0  0
 33 56  1  0  0  0  0
 33 57  1  0  0  0  0
 34 58  1  0  0  0  0
 34 59  1  0  0  0  0
 34 60  1  0  0  0  0
M  END
> <PUBCHEM_COMPOUND_CID>
90655524

> <PUBCHEM_CONFORMER_RMSD>
1

> <PUBCHEM_CONFORMER_DIVERSEORDER>
2
132
37
76
5
10
67
124
111
73
131
154
123
17
128
12
139
3
78
55
61
114
125
51
93
82
85
119
135
65
149
106
90
145
6
140
141
151
87
46
41
99
126
71
147
60
72
88
122
129
117
134
79
152
100
63
94
150
153
35
144
7
69
102
57
84
112
39
19
23
138
27
146
58
105
80
86
95
136
116
109
137
11
54
42
97
113
30
104
148
32
118
130
108
66
103
24
18
9
4
44
56
92
14
70
43
98
64
1
127
50
89
31
25
121
83
115
110
96
13
49
36
77
15
142
48
133
101
20
120
68
29
143
53
91
62
75
28
38
59
74
47
45
40
33
16
52
26
107
22
8
34
81
21

> <PUBCHEM_MMFF94_PARTIAL_CHARGES>
48
1 -0.36
10 0.09
11 0.09
12 -0.15
13 -0.15
14 -0.18
15 -0.18
16 -0.15
17 -0.15
18 0.08
19 0.08
2 -0.36
20 0.47
21 0.47
22 -0.15
23 -0.15
24 0.08
25 0.08
26 -0.15
27 -0.14
28 -0.14
29 -0.15
3 -0.36
30 -0.15
31 0.28
32 0.28
33 0.28
34 0.28
35 0.15
36 0.15
37 0.15
38 0.15
39 0.15
4 -0.36
40 0.15
41 0.15
42 0.15
43 0.15
44 0.15
45 0.15
46 0.15
47 0.15
48 0.15
5 -0.57
6 -0.57
7 0.03
8 0.03
9 -0.15

> <PUBCHEM_EFFECTIVE_ROTOR_COUNT>
10

> <PUBCHEM_PHARMACOPHORE_FEATURES>
9
1 1 acceptor
1 2 acceptor
1 3 acceptor
1 4 acceptor
1 5 acceptor
1 6 acceptor
6 10 16 18 22 24 29 rings
6 11 17 19 23 25 30 rings
6 7 8 9 12 13 26 rings

> <PUBCHEM_HEAVY_ATOM_COUNT>
34

> <PUBCHEM_ATOM_DEF_STEREO_COUNT>
0

> <PUBCHEM_ATOM_UDEF_STEREO_COUNT>
0

> <PUBCHEM_BOND_DEF_STEREO_COUNT>
2

> <PUBCHEM_BOND_UDEF_STEREO_COUNT>
0

> <PUBCHEM_ISOTOPIC_ATOM_COUNT>
0

> <PUBCHEM_COMPONENT_COUNT>
1

> <PUBCHEM_CACTVS_TAUTO_COUNT>
1

> <PUBCHEM_CONFORMER_ID>
05674B2400000002

> <PUBCHEM_MMFF94_ENERGY>
146.0108

> <PUBCHEM_FEATURE_SELFOVERLAP>
45.685

> <PUBCHEM_SHAPE_FINGERPRINT>
10254770 206 18265326201568193099
10290309 65 16463053784432488652
10439779 11 18194114351526767466
10622 236 18413387644387702893
10928967 22 18194712373540296404
11719270 70 17764023966604807560
11963148 33 18409166611191486152
13165053 137 18200037236040557783
1361 2 18194404626322489496
14394314 77 18411990130375047889
14904385 45 18336835294228833379
15001296 14 18120931961061550599
15264996 151 18335140908055211993
15320467 1 18194684993044013510
15400415 2 16969420713900583856
15419008 145 18193824961179538706
15968369 26 17905584946545519523
16628084 112 18408326584386765761
17627616 140 17762899162208939639
19301676 85 18409164373376563375
19315092 285 17917713521830911176
19319366 153 18120383309382137740
21133410 171 17537113070502414299
21779490 112 16749605845941247124
229767 44 17980489957592758633
23559900 14 18268984474939224369
23569914 152 18122312772295520357
3146121 3 18335983062008278954
3246872 21 18410579478810385040
325973 47 18193846065751200434
3882209 13 18121467281295229938
4017518 198 17039226520418742228
463206 1 18335997405811748872
5309563 4 18411703179483508380
6201320 77 17316798592165312105
6700243 42 17843146743468447198
7970288 3 18410855464634742804

> <PUBCHEM_SHAPE_MULTIPOLES>
664.49
16.68
9.67
0.9
7.11
7.74
-0.01
-22.83
0.33
-4.08
-0.24
-0.14
-0.06
-4.33

> <PUBCHEM_SHAPE_SELFOVERLAP>
1427.171

> <PUBCHEM_SHAPE_VOLUME>
367.7

> <PUBCHEM_COORDINATE_TYPE>
2
5
10

$$$$