44565460
  -OEChem-03242010103D

 55 58  0     1  0  0  0  0  0999 V2000
    3.4809    1.4021   -0.7552 O   0  0  0  0  0  0  0  0  0  0  0  0
    7.2529   -1.6249    2.1646 O   0  5  0  0  0  0  0  0  0  0  0  0
    7.6143   -2.3481    0.1236 O   0  0  0  0  0  0  0  0  0  0  0  0
   -5.0549   -0.0802   -0.2258 N   0  0  1  0  0  0  0  0  0  0  0  0
    2.7614   -0.7365   -0.1244 N   0  0  0  0  0  0  0  0  0  0  0  0
    4.9941   -0.1775    0.0718 N   0  0  0  0  0  0  0  0  0  0  0  0
    7.4261   -1.4170    0.9410 N   0  3  0  0  0  0  0  0  0  0  0  0
   -5.6045   -1.4413   -0.2025 C   0  0  0  0  0  0  0  0  0  0  0  0
   -5.7564    0.7688    0.7533 C   0  0  0  0  0  0  0  0  0  0  0  0
   -7.0548   -1.4256   -0.6961 C   0  0  0  0  0  0  0  0  0  0  0  0
   -3.6189   -0.0954    0.0495 C   0  0  0  0  0  0  0  0  0  0  0  0
   -7.2610    0.7218    0.6164 C   0  0  0  0  0  0  0  0  0  0  0  0
   -7.8847   -0.3533   -0.0398 C   0  0  0  0  0  0  0  0  0  0  0  0
   -2.8324   -0.5787   -1.1694 C   0  0  0  0  0  0  0  0  0  0  0  0
   -8.0474    1.7234    1.2018 C   0  0  0  0  0  0  0  0  0  0  0  0
   -9.2818   -0.3918   -0.1334 C   0  0  0  0  0  0  0  0  0  0  0  0
   -1.3508   -0.6200   -0.8915 C   0  0  0  0  0  0  0  0  0  0  0  0
   -9.4382    1.6711    1.1117 C   0  0  0  0  0  0  0  0  0  0  0  0
  -10.0545    0.6160    0.4429 C   0  0  0  0  0  0  0  0  0  0  0  0
   -0.5613    0.5008   -1.1491 C   0  0  0  0  0  0  0  0  0  0  0  0
   -0.7697   -1.7794   -0.3781 C   0  0  0  0  0  0  0  0  0  0  0  0
    0.8093    0.4620   -0.8935 C   0  0  0  0  0  0  0  0  0  0  0  0
    0.6010   -1.8182   -0.1225 C   0  0  0  0  0  0  0  0  0  0  0  0
    1.3904   -0.6975   -0.3802 C   0  0  0  0  0  0  0  0  0  0  0  0
    3.7256    0.2833   -0.3154 C   0  0  0  0  0  0  0  0  0  0  0  0
    6.2225    0.5239    0.0401 C   0  0  0  0  0  0  0  0  0  0  0  0
    7.4084   -0.0765    0.4628 C   0  0  0  0  0  0  0  0  0  0  0  0
    6.2332    1.8397   -0.4226 C   0  0  0  0  0  0  0  0  0  0  0  0
    8.6051    0.6390    0.4228 C   0  0  0  0  0  0  0  0  0  0  0  0
    7.4300    2.5552   -0.4625 C   0  0  0  0  0  0  0  0  0  0  0  0
    8.6159    1.9549   -0.0399 C   0  0  0  0  0  0  0  0  0  0  0  0
   -5.5581   -1.8605    0.8122 H   0  0  0  0  0  0  0  0  0  0  0  0
   -5.0524   -2.1257   -0.8538 H   0  0  0  0  0  0  0  0  0  0  0  0
   -5.5014    0.4704    1.7792 H   0  0  0  0  0  0  0  0  0  0  0  0
   -5.4306    1.8068    0.6101 H   0  0  0  0  0  0  0  0  0  0  0  0
   -7.0704   -1.2531   -1.7799 H   0  0  0  0  0  0  0  0  0  0  0  0
   -7.5026   -2.4086   -0.5070 H   0  0  0  0  0  0  0  0  0  0  0  0
   -3.3895   -0.7032    0.9353 H   0  0  0  0  0  0  0  0  0  0  0  0
   -3.2771    0.9231    0.2804 H   0  0  0  0  0  0  0  0  0  0  0  0
   -3.1421   -1.5784   -1.4929 H   0  0  0  0  0  0  0  0  0  0  0  0
   -3.0236    0.0802   -2.0270 H   0  0  0  0  0  0  0  0  0  0  0  0
   -7.5792    2.5495    1.7311 H   0  0  0  0  0  0  0  0  0  0  0  0
   -9.7745   -1.2076   -0.6563 H   0  0  0  0  0  0  0  0  0  0  0  0
  -10.0409    2.4533    1.5640 H   0  0  0  0  0  0  0  0  0  0  0  0
  -11.1375    0.5779    0.3700 H   0  0  0  0  0  0  0  0  0  0  0  0
   -1.0043    1.4098   -1.5476 H   0  0  0  0  0  0  0  0  0  0  0  0
   -1.3748   -2.6582   -0.1714 H   0  0  0  0  0  0  0  0  0  0  0  0
    1.3505    1.3696   -1.1190 H   0  0  0  0  0  0  0  0  0  0  0  0
    1.0405   -2.7283    0.2780 H   0  0  0  0  0  0  0  0  0  0  0  0
    3.1109   -1.6156    0.2488 H   0  0  0  0  0  0  0  0  0  0  0  0
    5.0350   -1.1322    0.4170 H   0  0  0  0  0  0  0  0  0  0  0  0
    5.3668    2.3830   -0.7682 H   0  0  0  0  0  0  0  0  0  0  0  0
    9.5376    0.1849    0.7492 H   0  0  0  0  0  0  0  0  0  0  0  0
    7.4401    3.5800   -0.8225 H   0  0  0  0  0  0  0  0  0  0  0  0
    9.5476    2.5122   -0.0710 H   0  0  0  0  0  0  0  0  0  0  0  0
  1 25  2  0  0  0  0
  2  7  1  0  0  0  0
  3  7  2  0  0  0  0
  4  8  1  0  0  0  0
  4  9  1  0  0  0  0
  4 11  1  0  0  0  0
  5 24  1  0  0  0  0
  5 25  1  0  0  0  0
  5 50  1  0  0  0  0
  6 25  1  0  0  0  0
  6 26  1  0  0  0  0
  6 51  1  0  0  0  0
  7 27  1  0  0  0  0
  8 10  1  0  0  0  0
  8 32  1  0  0  0  0
  8 33  1  0  0  0  0
  9 12  1  0  0  0  0
  9 34  1  0  0  0  0
  9 35  1  0  0  0  0
 10 13  1  0  0  0  0
 10 36  1  0  0  0  0
 10 37  1  0  0  0  0
 11 14  1  0  0  0  0
 11 38  1  0  0  0  0
 11 39  1  0  0  0  0
 12 13  1  0  0  0  0
 12 15  2  0  0  0  0
 13 16  2  0  0  0  0
 14 17  1  0  0  0  0
 14 40  1  0  0  0  0
 14 41  1  0  0  0  0
 15 18  1  0  0  0  0
 15 42  1  0  0  0  0
 16 19  1  0  0  0  0
 16 43  1  0  0  0  0
 17 20  2  0  0  0  0
 17 21  1  0  0  0  0
 18 19  2  0  0  0  0
 18 44  1  0  0  0  0
 19 45  1  0  0  0  0
 20 22  1  0  0  0  0
 20 46  1  0  0  0  0
 21 23  2  0  0  0  0
 21 47  1  0  0  0  0
 22 24  2  0  0  0  0
 22 48  1  0  0  0  0
 23 24  1  0  0  0  0
 23 49  1  0  0  0  0
 26 27  1  0  0  0  0
 26 28  2  0  0  0  0
 27 29  2  0  0  0  0
 28 30  1  0  0  0  0
 28 52  1  0  0  0  0
 29 31  1  0  0  0  0
 29 53  1  0  0  0  0
 30 31  2  0  0  0  0
 30 54  1  0  0  0  0
 31 55  1  0  0  0  0
M  CHG  2   2  -1   7   1
M  END
> <PUBCHEM_COMPOUND_CID>
44565460

> <PUBCHEM_CONFORMER_RMSD>
1

> <PUBCHEM_CONFORMER_DIVERSEORDER>
1
156
116
186
85
40
201
62
167
215
99
190
115
198
177
208
41
32
76
22
172
44
68
168
113
132
170
31
125
181
25
92
88
45
114
178
182
126
94
83
166
210
101
169
10
86
89
183
196
179
203
63
129
60
112
135
21
213
110
98
202
67
97
124
185
206
153
59
150
96
193
79
131
74
70
20
151
171
102
100
140
119
108
137
209
82
205
191
194
65
155
161
159
162
142
66
111
136
107
192
49
90
152
139
157
104
204
216
34
39
197
118
52
15
95
46
35
144
147
165
117
158
13
180
146
73
134
64
36
11
106
71
55
122
38
133
23
87
48
103
50
7
130
188
53
138
84
78
75
160
154
69
123
143
175
164
17
56
33
120
26
217
4
28
189
127
214
51
176
19
212
43
12
128
141
149
57
72
121
163
16
37
14
91
187
8
207
184
145
3
195
81
18
42
199
2
93
5
9
77
200
105
173
47
54
29
211
148
58
109
24
30
174
61
27
6
80

> <PUBCHEM_MMFF94_PARTIAL_CHARGES>
45
1 -0.57
10 0.14
11 0.27
12 -0.14
13 -0.14
14 0.14
15 -0.15
16 -0.15
17 -0.14
18 -0.15
19 -0.15
2 -0.52
20 -0.15
21 -0.15
22 -0.15
23 -0.15
24 0.12
25 0.69
26 0.12
27 0.13
28 -0.15
29 -0.15
3 -0.52
30 -0.15
31 -0.15
4 -0.81
42 0.15
43 0.15
44 0.15
45 0.15
46 0.15
47 0.15
48 0.15
49 0.15
5 -0.55
50 0.37
51 0.37
52 0.15
53 0.15
54 0.15
55 0.15
6 -0.55
7 0.91
8 0.27
9 0.41

> <PUBCHEM_EFFECTIVE_ROTOR_COUNT>
8.8

> <PUBCHEM_PHARMACOPHORE_FEATURES>
11
1 1 acceptor
1 2 acceptor
1 2 anion
1 3 acceptor
1 4 cation
1 5 donor
1 6 donor
6 12 13 15 16 18 19 rings
6 17 20 21 22 23 24 rings
6 26 27 28 29 30 31 rings
6 4 8 9 10 12 13 rings

> <PUBCHEM_HEAVY_ATOM_COUNT>
31

> <PUBCHEM_ATOM_DEF_STEREO_COUNT>
0

> <PUBCHEM_ATOM_UDEF_STEREO_COUNT>
0

> <PUBCHEM_BOND_DEF_STEREO_COUNT>
0

> <PUBCHEM_BOND_UDEF_STEREO_COUNT>
0

> <PUBCHEM_ISOTOPIC_ATOM_COUNT>
0

> <PUBCHEM_COMPONENT_COUNT>
1

> <PUBCHEM_CACTVS_TAUTO_COUNT>
3

> <PUBCHEM_CONFORMER_ID>
02A803D400000001

> <PUBCHEM_MMFF94_ENERGY>
97.6914

> <PUBCHEM_FEATURE_SELFOVERLAP>
55.973

> <PUBCHEM_SHAPE_FINGERPRINT>
10 15 18334295374965417413
10533779 47 17313108510245100881
106641 1 18113901585124488359
11135609 127 10303517430768770018
11181472 205 18202008720402241980
11315181 36 18413672427443636847
11966995 178 18341619214077036006
12089408 11 18413387644677541567
12498461 61 15068628227930562945
12522641 33 17989211443059776262
12539745 222 13912592854284339647
12664476 115 18060415816554441369
13553643 46 18261109677756276453
14118638 360 15267077912220211590
14150022 121 18342459193500888209
14251764 18 18413106190621597702
14251764 46 18344147003418871031
14344974 52 15410885276855395681
14849402 71 18338800129797325861
14937079 2 18335986483588966364
150020 25 14333406765907543775
15065858 18 17167859773616717895
15247644 1 14562530687296277601
15301273 46 16805035212136082926
15461852 350 16845288376538102565
155225 1 17917997157977589073
15690457 1 10809337854340927212
1577012 14 18343016731451657654
15840311 113 18335144198295703108
16989713 51 16557894784723165439
1754911 235 12607407680965039769
1818759 1 12612754605837029625
19315958 150 18342463617047885719
19841028 212 11675138363969294712
20105231 36 16298385743151947786
20505436 4 18059851766662436751
20554085 129 16917063356937867422
20812841 46 18259984869054891168
21150785 3 10015865379439802775
21267235 1 7997967965141448927
21362267 313 18200596878267553691
21591340 7 18341611534237861975
21927370 108 16081085957725289685
22224240 67 18113900472512064131
23576562 1 13901606572685767545
246663 6 14851606579088329453
24771293 8 18411140251495131741
249057 3 15051729819783140869
306946 40 15554156044037754898
3092352 35 18272930535402262759
3178227 256 17676207983243649828
3711267 37 17845666935809999953
4073 2 18412270545507608151
44280117 145 17346877880833303271
54039377 194 8070024463957350481
5470011 282 11024103252738474344
5758199 1 18408887347737739719
59682541 35 17313105258817765457
636775 72 18131075897222980649
636775 8 9943513117594470869
67123 10 18343021112413114839
9663363 56 16805601479027895477
9953998 17 17967253126796095883

> <PUBCHEM_SHAPE_MULTIPOLES>
600.43
38.94
2.09
1.08
13.28
0.16
-0.24
13.63
-11.25
-2.29
-0.19
-0.47
-0.08
-3.5

> <PUBCHEM_SHAPE_SELFOVERLAP>
1297.067

> <PUBCHEM_SHAPE_VOLUME>
327.5

> <PUBCHEM_COORDINATE_TYPE>
2
5
10

$$$$