11841636
  -OEChem-03242010103D

 65 68  0     1  0  0  0  0  0999 V2000
   -0.2756   -6.0486    0.4399 O   0  0  0  0  0  0  0  0  0  0  0  0
    1.4140   -3.6846   -0.2477 O   0  0  0  0  0  0  0  0  0  0  0  0
    5.9117    0.7289   -0.8443 O   0  0  0  0  0  0  0  0  0  0  0  0
   -1.5705   -2.5956    0.0510 N   0  0  0  0  0  0  0  0  0  0  0  0
   -3.0662   -0.1640    0.1458 N   0  0  0  0  0  0  0  0  0  0  0  0
   -2.6834   -2.4440    0.9961 C   0  0  0  0  0  0  0  0  0  0  0  0
   -1.8577   -1.8524   -1.1820 C   0  0  0  0  0  0  0  0  0  0  0  0
   -2.9018   -0.9727    1.3576 C   0  0  0  0  0  0  0  0  0  0  0  0
   -2.0474   -0.3615   -0.8929 C   0  0  0  0  0  0  0  0  0  0  0  0
   -1.3372   -4.0088   -0.2445 C   0  0  0  0  0  0  0  0  0  0  0  0
   -3.6910    1.0857    0.2248 C   0  0  0  0  0  0  0  0  0  0  0  0
   -0.4834   -4.6879    0.8289 C   0  0  2  0  0  0  0  0  0  0  0  0
   -4.8533    1.3516   -0.4991 C   0  0  0  0  0  0  0  0  0  0  0  0
    0.8782   -4.0255    1.0272 C   0  0  0  0  0  0  0  0  0  0  0  0
   -3.1361    2.0721    1.0402 C   0  0  0  0  0  0  0  0  0  0  0  0
   -5.4608    2.6040   -0.4075 C   0  0  0  0  0  0  0  0  0  0  0  0
   -5.4509    0.2955   -1.3750 C   0  0  0  0  0  0  0  0  0  0  0  0
   -3.7437    3.3245    1.1316 C   0  0  0  0  0  0  0  0  0  0  0  0
   -4.9059    3.5905    0.4078 C   0  0  0  0  0  0  0  0  0  0  0  0
   -6.7051    2.9149   -1.1727 C   0  0  0  0  0  0  0  0  0  0  0  0
    2.2245   -2.5822   -0.2996 C   0  0  0  0  0  0  0  0  0  0  0  0
    2.2854   -1.8156   -1.4634 C   0  0  0  0  0  0  0  0  0  0  0  0
    2.9897   -2.2263    0.8111 C   0  0  0  0  0  0  0  0  0  0  0  0
    3.1111   -0.6929   -1.5164 C   0  0  0  0  0  0  0  0  0  0  0  0
    3.8156   -1.1034    0.7580 C   0  0  0  0  0  0  0  0  0  0  0  0
    3.8763   -0.3367   -0.4057 C   0  0  0  0  0  0  0  0  0  0  0  0
    4.7371    0.8342   -0.4610 C   0  0  0  0  0  0  0  0  0  0  0  0
    4.2634    2.1958   -0.0684 C   0  0  0  0  0  0  0  0  0  0  0  0
    2.9523    2.3780    0.3717 C   0  0  0  0  0  0  0  0  0  0  0  0
    5.1322    3.2847   -0.1414 C   0  0  0  0  0  0  0  0  0  0  0  0
    2.5099    3.6490    0.7386 C   0  0  0  0  0  0  0  0  0  0  0  0
    4.6898    4.5557    0.2256 C   0  0  0  0  0  0  0  0  0  0  0  0
    3.3786    4.7377    0.6656 C   0  0  0  0  0  0  0  0  0  0  0  0
   -2.4810   -2.9889    1.9249 H   0  0  0  0  0  0  0  0  0  0  0  0
   -3.6109   -2.8542    0.5734 H   0  0  0  0  0  0  0  0  0  0  0  0
   -1.0264   -1.9552   -1.8896 H   0  0  0  0  0  0  0  0  0  0  0  0
   -2.7564   -2.2501   -1.6727 H   0  0  0  0  0  0  0  0  0  0  0  0
   -3.7950   -0.8951    1.9898 H   0  0  0  0  0  0  0  0  0  0  0  0
   -2.0492   -0.6005    1.9396 H   0  0  0  0  0  0  0  0  0  0  0  0
   -1.0996    0.0839   -0.5638 H   0  0  0  0  0  0  0  0  0  0  0  0
   -2.3405    0.1410   -1.8230 H   0  0  0  0  0  0  0  0  0  0  0  0
   -0.8274   -4.1251   -1.2113 H   0  0  0  0  0  0  0  0  0  0  0  0
   -2.2800   -4.5581   -0.3761 H   0  0  0  0  0  0  0  0  0  0  0  0
   -1.0092   -4.7287    1.7881 H   0  0  0  0  0  0  0  0  0  0  0  0
    0.7222   -3.1331    1.6471 H   0  0  0  0  0  0  0  0  0  0  0  0
    1.5689   -4.7100    1.5327 H   0  0  0  0  0  0  0  0  0  0  0  0
   -2.2272    1.8856    1.6065 H   0  0  0  0  0  0  0  0  0  0  0  0
   -6.5429    0.2797   -1.2966 H   0  0  0  0  0  0  0  0  0  0  0  0
   -5.1300   -0.7153   -1.1040 H   0  0  0  0  0  0  0  0  0  0  0  0
   -5.1711    0.4722   -2.4187 H   0  0  0  0  0  0  0  0  0  0  0  0
   -3.3107    4.0930    1.7654 H   0  0  0  0  0  0  0  0  0  0  0  0
    0.2422   -6.0460   -0.3835 H   0  0  0  0  0  0  0  0  0  0  0  0
   -5.3666    4.5712    0.4912 H   0  0  0  0  0  0  0  0  0  0  0  0
   -6.9582    3.9794   -1.1150 H   0  0  0  0  0  0  0  0  0  0  0  0
   -7.5540    2.3544   -0.7682 H   0  0  0  0  0  0  0  0  0  0  0  0
   -6.5821    2.6786   -2.2348 H   0  0  0  0  0  0  0  0  0  0  0  0
    1.6911   -2.0883   -2.3311 H   0  0  0  0  0  0  0  0  0  0  0  0
    2.9939   -2.8117    1.7256 H   0  0  0  0  0  0  0  0  0  0  0  0
    3.1503   -0.1026   -2.4283 H   0  0  0  0  0  0  0  0  0  0  0  0
    4.4125   -0.8384    1.6271 H   0  0  0  0  0  0  0  0  0  0  0  0
    2.2459    1.5564    0.4424 H   0  0  0  0  0  0  0  0  0  0  0  0
    6.1583    3.1708   -0.4805 H   0  0  0  0  0  0  0  0  0  0  0  0
    1.4890    3.7912    1.0810 H   0  0  0  0  0  0  0  0  0  0  0  0
    5.3659    5.4038    0.1690 H   0  0  0  0  0  0  0  0  0  0  0  0
    3.0342    5.7273    0.9513 H   0  0  0  0  0  0  0  0  0  0  0  0
  1 12  1  0  0  0  0
  1 52  1  0  0  0  0
  2 14  1  0  0  0  0
  2 21  1  0  0  0  0
  3 27  2  0  0  0  0
  4  6  1  0  0  0  0
  4  7  1  0  0  0  0
  4 10  1  0  0  0  0
  5  8  1  0  0  0  0
  5  9  1  0  0  0  0
  5 11  1  0  0  0  0
  6  8  1  0  0  0  0
  6 34  1  0  0  0  0
  6 35  1  0  0  0  0
  7  9  1  0  0  0  0
  7 36  1  0  0  0  0
  7 37  1  0  0  0  0
  8 38  1  0  0  0  0
  8 39  1  0  0  0  0
  9 40  1  0  0  0  0
  9 41  1  0  0  0  0
 10 12  1  0  0  0  0
 10 42  1  0  0  0  0
 10 43  1  0  0  0  0
 11 13  1  0  0  0  0
 11 15  2  0  0  0  0
 12 14  1  0  0  0  0
 12 44  1  0  0  0  0
 13 16  2  0  0  0  0
 13 17  1  0  0  0  0
 14 45  1  0  0  0  0
 14 46  1  0  0  0  0
 15 18  1  0  0  0  0
 15 47  1  0  0  0  0
 16 19  1  0  0  0  0
 16 20  1  0  0  0  0
 17 48  1  0  0  0  0
 17 49  1  0  0  0  0
 17 50  1  0  0  0  0
 18 19  2  0  0  0  0
 18 51  1  0  0  0  0
 19 53  1  0  0  0  0
 20 54  1  0  0  0  0
 20 55  1  0  0  0  0
 20 56  1  0  0  0  0
 21 22  2  0  0  0  0
 21 23  1  0  0  0  0
 22 24  1  0  0  0  0
 22 57  1  0  0  0  0
 23 25  2  0  0  0  0
 23 58  1  0  0  0  0
 24 26  2  0  0  0  0
 24 59  1  0  0  0  0
 25 26  1  0  0  0  0
 25 60  1  0  0  0  0
 26 27  1  0  0  0  0
 27 28  1  0  0  0  0
 28 29  2  0  0  0  0
 28 30  1  0  0  0  0
 29 31  1  0  0  0  0
 29 61  1  0  0  0  0
 30 32  2  0  0  0  0
 30 62  1  0  0  0  0
 31 33  2  0  0  0  0
 31 63  1  0  0  0  0
 32 33  1  0  0  0  0
 32 64  1  0  0  0  0
 33 65  1  0  0  0  0
M  END
> <PUBCHEM_COMPOUND_CID>
11841636

> <PUBCHEM_CONFORMER_RMSD>
1

> <PUBCHEM_CONFORMER_DIVERSEORDER>
1
79
129
54
183
139
221
92
220
93
137
30
91
227
165
151
206
11
182
22
194
64
7
9
225
117
118
152
226
153
123
147
197
24
57
45
212
104
202
87
116
77
223
19
175
170
218
95
148
192
203
46
193
163
50
71
159
178
34
210
130
44
89
164
55
145
115
31
149
72
136
209
83
190
68
168
52
59
61
146
73
16
66
144
58
166
222
184
36
156
74
228
195
48
141
161
14
132
189
224
35
122
101
169
172
49
110
188
105
78
162
155
207
191
13
107
157
199
187
158
205
112
167
126
124
75
20
6
62
177
216
217
109
127
113
181
214
230
138
85
215
211
32
204
67
200
213
12
173
88
114
103
69
84
125
106
150
219
70
198
154
131
171
208
108
37
160
41
119
65
174
56
180
25
21
17
196
97
81
27
99
94
80
179
38
86
140
143
40
51
134
111
229
53
43
63
8
42
133
29
201
186
100
102
185
39
26
176
23
15
60
2
90
142
128
47
76
120
96
33
10
135
4
28
121
82
3
98
18
5

> <PUBCHEM_MMFF94_PARTIAL_CHARGES>
46
1 -0.68
10 0.27
11 0.1
12 0.28
13 -0.14
14 0.28
15 -0.15
16 -0.14
17 0.14
18 -0.15
19 -0.15
2 -0.36
20 0.14
21 0.08
22 -0.15
23 -0.15
24 -0.15
25 -0.15
26 0.09
27 0.4
28 0.09
29 -0.15
3 -0.57
30 -0.15
31 -0.15
32 -0.15
33 -0.15
4 -0.81
47 0.15
5 -0.84
51 0.15
52 0.4
53 0.15
57 0.15
58 0.15
59 0.15
6 0.27
60 0.15
61 0.15
62 0.15
63 0.15
64 0.15
65 0.15
7 0.27
8 0.37
9 0.37

> <PUBCHEM_EFFECTIVE_ROTOR_COUNT>
9.2

> <PUBCHEM_PHARMACOPHORE_FEATURES>
10
1 1 acceptor
1 1 donor
1 2 acceptor
1 3 acceptor
1 4 cation
1 5 cation
6 11 13 15 16 18 19 rings
6 21 22 23 24 25 26 rings
6 28 29 30 31 32 33 rings
6 4 5 6 7 8 9 rings

> <PUBCHEM_HEAVY_ATOM_COUNT>
33

> <PUBCHEM_ATOM_DEF_STEREO_COUNT>
0

> <PUBCHEM_ATOM_UDEF_STEREO_COUNT>
1

> <PUBCHEM_BOND_DEF_STEREO_COUNT>
0

> <PUBCHEM_BOND_UDEF_STEREO_COUNT>
0

> <PUBCHEM_ISOTOPIC_ATOM_COUNT>
0

> <PUBCHEM_COMPONENT_COUNT>
1

> <PUBCHEM_CACTVS_TAUTO_COUNT>
1

> <PUBCHEM_CONFORMER_ID>
00B4B06400000001

> <PUBCHEM_MMFF94_ENERGY>
121.367

> <PUBCHEM_FEATURE_SELFOVERLAP>
50.75

> <PUBCHEM_SHAPE_FINGERPRINT>
10439779 11 18410845578152446538
10675989 125 18268148660601584096
10864689 126 18410017603042231116
10937287 8 18409169900239973915
10951579 204 17688328085371586732
11059845 2 18193531559130582832
12107183 9 18261941987195134906
12728209 29 18261385624845677060
12925494 130 18409167710370947633
13590594 115 16897373010423174787
1361 2 18339361834114993689
14117953 113 18267862775336453694
14415360 78 18335409167227694948
14705955 166 17462294839411796266
15082195 135 18267287756698938895
15142526 21 18410009952971961406
15320291 9 18053381277881946216
15320467 1 18051132793666592192
15322535 138 18267016348577489856
15400415 2 18410292535961602809
15961568 22 17116079643184943382
16067690 210 17469309800927498058
16992787 43 18196087966710351383
16992828 155 16616452793616876972
21388113 180 18410576201581851485
21591340 35 18339925918066147600
354706 109 18195786673752392728
4144715 1 18192436492899796642
4173938 77 18125173636208286485
4487111 67 18050568744333438048
4756261 7 17836681817530637627
4760202 170 17398375444360924333
5081480 168 17128215717445271702
508706 21 18052540160339473234
5109719 28 18267314145094459601
5951187 136 18199755747371623038
6036956 94 17903075882380743813
6201320 215 17692244562863942688

> <PUBCHEM_SHAPE_MULTIPOLES>
651.55
14.02
8.42
1.27
6.67
3.79
-0.14
-19.17
-3.07
-2.99
2.45
0.53
0.25
0.81

> <PUBCHEM_SHAPE_SELFOVERLAP>
1395.722

> <PUBCHEM_SHAPE_VOLUME>
361.3

> <PUBCHEM_COORDINATE_TYPE>
2
5
10

$$$$