57385022
  -OEChem-03242010103D

 59 62  0     1  0  0  0  0  0999 V2000
   -6.3130   -1.5627    0.7977 F   0  0  0  0  0  0  0  0  0  0  0  0
    5.5676   -3.0537   -0.3821 O   0  0  0  0  0  0  0  0  0  0  0  0
    3.5586   -0.3409    0.9163 O   0  0  0  0  0  0  0  0  0  0  0  0
   -0.1586    3.5991    1.9736 O   0  0  0  0  0  0  0  0  0  0  0  0
    1.9364   -2.3055   -0.4559 N   0  0  0  0  0  0  0  0  0  0  0  0
   -0.8900   -2.2211   -0.0513 N   0  0  0  0  0  0  0  0  0  0  0  0
    1.0224   -2.2863   -1.6047 C   0  0  0  0  0  0  0  0  0  0  0  0
    1.3229   -3.0385    0.6581 C   0  0  0  0  0  0  0  0  0  0  0  0
    0.0114   -2.3805    1.0940 C   0  0  0  0  0  0  0  0  0  0  0  0
   -0.2982   -1.6023   -1.2442 C   0  0  0  0  0  0  0  0  0  0  0  0
    3.2143   -2.9121   -0.8272 C   0  0  0  0  0  0  0  0  0  0  0  0
    4.3576   -2.4436    0.0760 C   0  0  2  0  0  0  0  0  0  0  0  0
   -2.2626   -2.0545    0.1635 C   0  0  0  0  0  0  0  0  0  0  0  0
    4.5467   -0.9281    0.0754 C   0  0  0  0  0  0  0  0  0  0  0  0
   -3.1775   -2.5103   -0.7855 C   0  0  0  0  0  0  0  0  0  0  0  0
   -2.7159   -1.4322    1.3268 C   0  0  0  0  0  0  0  0  0  0  0  0
   -4.5457   -2.3442   -0.5713 C   0  0  0  0  0  0  0  0  0  0  0  0
   -4.0842   -1.2662    1.5410 C   0  0  0  0  0  0  0  0  0  0  0  0
   -4.9990   -1.7222    0.5920 C   0  0  0  0  0  0  0  0  0  0  0  0
    3.1535    0.9274    0.5961 C   0  0  0  0  0  0  0  0  0  0  0  0
    1.8558    1.3418    0.8955 C   0  0  0  0  0  0  0  0  0  0  0  0
    4.0392    1.8050   -0.0293 C   0  0  0  0  0  0  0  0  0  0  0  0
    1.4437    2.6339    0.5696 C   0  0  0  0  0  0  0  0  0  0  0  0
    3.6270    3.0972   -0.3552 C   0  0  0  0  0  0  0  0  0  0  0  0
    2.3293    3.5116   -0.0558 C   0  0  0  0  0  0  0  0  0  0  0  0
    0.0908    3.0661    0.8822 C   0  0  0  0  0  0  0  0  0  0  0  0
   -1.0454    2.8954   -0.0731 C   0  0  0  0  0  0  0  0  0  0  0  0
   -2.3239    3.3285    0.2784 C   0  0  0  0  0  0  0  0  0  0  0  0
   -0.8270    2.3040   -1.3173 C   0  0  0  0  0  0  0  0  0  0  0  0
   -3.3840    3.1703   -0.6144 C   0  0  0  0  0  0  0  0  0  0  0  0
   -1.8869    2.1457   -2.2101 C   0  0  0  0  0  0  0  0  0  0  0  0
   -3.1654    2.5789   -1.8585 C   0  0  0  0  0  0  0  0  0  0  0  0
    1.9905   -3.0566    1.5266 H   0  0  0  0  0  0  0  0  0  0  0  0
    1.1285   -4.0822    0.3755 H   0  0  0  0  0  0  0  0  0  0  0  0
    0.8252   -3.3065   -1.9604 H   0  0  0  0  0  0  0  0  0  0  0  0
    1.4729   -1.7298   -2.4357 H   0  0  0  0  0  0  0  0  0  0  0  0
   -0.9651   -1.6648   -2.1116 H   0  0  0  0  0  0  0  0  0  0  0  0
   -0.1239   -0.5392   -1.0443 H   0  0  0  0  0  0  0  0  0  0  0  0
    0.2177   -1.4062    1.5503 H   0  0  0  0  0  0  0  0  0  0  0  0
   -0.4474   -3.0194    1.8592 H   0  0  0  0  0  0  0  0  0  0  0  0
    3.1630   -4.0093   -0.8448 H   0  0  0  0  0  0  0  0  0  0  0  0
    3.4820   -2.6304   -1.8558 H   0  0  0  0  0  0  0  0  0  0  0  0
    4.1971   -2.7970    1.1002 H   0  0  0  0  0  0  0  0  0  0  0  0
    4.4938   -0.5685   -0.9612 H   0  0  0  0  0  0  0  0  0  0  0  0
    5.5388   -0.6788    0.4716 H   0  0  0  0  0  0  0  0  0  0  0  0
   -2.8451   -3.0100   -1.6917 H   0  0  0  0  0  0  0  0  0  0  0  0
   -2.0321   -1.0508    2.0796 H   0  0  0  0  0  0  0  0  0  0  0  0
    5.7463   -2.7246   -1.2797 H   0  0  0  0  0  0  0  0  0  0  0  0
   -5.2585   -2.7016   -1.3085 H   0  0  0  0  0  0  0  0  0  0  0  0
   -4.4377   -0.7784    2.4446 H   0  0  0  0  0  0  0  0  0  0  0  0
    1.1706    0.6595    1.3892 H   0  0  0  0  0  0  0  0  0  0  0  0
    5.0663    1.5331   -0.2533 H   0  0  0  0  0  0  0  0  0  0  0  0
    4.3183    3.7831   -0.8361 H   0  0  0  0  0  0  0  0  0  0  0  0
    2.0195    4.5213   -0.3129 H   0  0  0  0  0  0  0  0  0  0  0  0
   -2.5217    3.7921    1.2411 H   0  0  0  0  0  0  0  0  0  0  0  0
    0.1533    1.9566   -1.6289 H   0  0  0  0  0  0  0  0  0  0  0  0
   -4.3797    3.5068   -0.3407 H   0  0  0  0  0  0  0  0  0  0  0  0
   -1.7172    1.6844   -3.1786 H   0  0  0  0  0  0  0  0  0  0  0  0
   -3.9909    2.4547   -2.5533 H   0  0  0  0  0  0  0  0  0  0  0  0
  1 19  1  0  0  0  0
  2 12  1  0  0  0  0
  2 48  1  0  0  0  0
  3 14  1  0  0  0  0
  3 20  1  0  0  0  0
  4 26  2  0  0  0  0
  5  7  1  0  0  0  0
  5  8  1  0  0  0  0
  5 11  1  0  0  0  0
  6  9  1  0  0  0  0
  6 10  1  0  0  0  0
  6 13  1  0  0  0  0
  7 10  1  0  0  0  0
  7 35  1  0  0  0  0
  7 36  1  0  0  0  0
  8  9  1  0  0  0  0
  8 33  1  0  0  0  0
  8 34  1  0  0  0  0
  9 39  1  0  0  0  0
  9 40  1  0  0  0  0
 10 37  1  0  0  0  0
 10 38  1  0  0  0  0
 11 12  1  0  0  0  0
 11 41  1  0  0  0  0
 11 42  1  0  0  0  0
 12 14  1  0  0  0  0
 12 43  1  0  0  0  0
 13 15  2  0  0  0  0
 13 16  1  0  0  0  0
 14 44  1  0  0  0  0
 14 45  1  0  0  0  0
 15 17  1  0  0  0  0
 15 46  1  0  0  0  0
 16 18  2  0  0  0  0
 16 47  1  0  0  0  0
 17 19  2  0  0  0  0
 17 49  1  0  0  0  0
 18 19  1  0  0  0  0
 18 50  1  0  0  0  0
 20 21  1  0  0  0  0
 20 22  2  0  0  0  0
 21 23  2  0  0  0  0
 21 51  1  0  0  0  0
 22 24  1  0  0  0  0
 22 52  1  0  0  0  0
 23 25  1  0  0  0  0
 23 26  1  0  0  0  0
 24 25  2  0  0  0  0
 24 53  1  0  0  0  0
 25 54  1  0  0  0  0
 26 27  1  0  0  0  0
 27 28  2  0  0  0  0
 27 29  1  0  0  0  0
 28 30  1  0  0  0  0
 28 55  1  0  0  0  0
 29 31  2  0  0  0  0
 29 56  1  0  0  0  0
 30 32  2  0  0  0  0
 30 57  1  0  0  0  0
 31 32  1  0  0  0  0
 31 58  1  0  0  0  0
 32 59  1  0  0  0  0
M  END
> <PUBCHEM_COMPOUND_CID>
57385022

> <PUBCHEM_CONFORMER_RMSD>
1.2

> <PUBCHEM_CONFORMER_DIVERSEORDER>
1
18
60
8
46
38
14
92
29
58
78
51
114
39
113
89
82
85
76
49
104
36
24
35
93
56
69
26
63
107
95
55
52
91
37
3
61
81
84
6
75
72
111
30
17
2
19
71
12
50
20
34
42
67
98
16
64
44
110
57
15
100
97
88
33
25
28
11
105
41
103
65
112
83
31
21
73
101
4
66
108
54
70
27
47
23
53
43
45
32
79
59
102
109
87
62
5
96
86
99
74
9
94
68
22
13
10
40
80
77
7
106
48
90

> <PUBCHEM_MMFF94_PARTIAL_CHARGES>
46
1 -0.19
10 0.37
11 0.27
12 0.28
13 0.1
14 0.28
15 -0.15
16 -0.15
17 -0.15
18 -0.15
19 0.19
2 -0.68
20 0.08
21 -0.15
22 -0.15
23 0.09
24 -0.15
25 -0.15
26 0.4
27 0.09
28 -0.15
29 -0.15
3 -0.36
30 -0.15
31 -0.15
32 -0.15
4 -0.57
46 0.15
47 0.15
48 0.4
49 0.15
5 -0.81
50 0.15
51 0.15
52 0.15
53 0.15
54 0.15
55 0.15
56 0.15
57 0.15
58 0.15
59 0.15
6 -0.84
7 0.27
8 0.27
9 0.37

> <PUBCHEM_EFFECTIVE_ROTOR_COUNT>
9.2

> <PUBCHEM_PHARMACOPHORE_FEATURES>
10
1 2 acceptor
1 2 donor
1 3 acceptor
1 4 acceptor
1 5 cation
1 6 cation
6 13 15 16 17 18 19 rings
6 20 21 22 23 24 25 rings
6 27 28 29 30 31 32 rings
6 5 6 7 8 9 10 rings

> <PUBCHEM_HEAVY_ATOM_COUNT>
32

> <PUBCHEM_ATOM_DEF_STEREO_COUNT>
0

> <PUBCHEM_ATOM_UDEF_STEREO_COUNT>
1

> <PUBCHEM_BOND_DEF_STEREO_COUNT>
0

> <PUBCHEM_BOND_UDEF_STEREO_COUNT>
0

> <PUBCHEM_ISOTOPIC_ATOM_COUNT>
0

> <PUBCHEM_COMPONENT_COUNT>
1

> <PUBCHEM_CACTVS_TAUTO_COUNT>
1

> <PUBCHEM_CONFORMER_ID>
036BA03E00000001

> <PUBCHEM_MMFF94_ENERGY>
108.8712

> <PUBCHEM_FEATURE_SELFOVERLAP>
50.75

> <PUBCHEM_SHAPE_FINGERPRINT>
10119406 146 17044867011059752334
10864689 126 17474117492856103077
1100329 8 18194680367485750060
11513181 2 18272097140074422919
12156800 1 17971165089665856163
12293681 4 17764303943011685878
12422481 6 18410867555558057561
13402501 40 18335414725215984085
1361 2 17403160990761995903
14114211 80 17689169223743277604
14790565 3 17544762682177006276
15264996 44 18201452384181564366
15975801 100 16880190001569816420
20764821 26 18339366253493493877
21133410 90 17203314581608989241
25265897 201 17197457659441164863
3737641 26 18338238292044729141
4144715 1 18116725195831912955
463206 1 18124590878093068924
469060 322 17023760991846720663
474 4 18197218267887897771
508706 21 18189606160178521941
5171179 24 18412819187911311031
66674814 147 17906440044237636660

> <PUBCHEM_SHAPE_MULTIPOLES>
623.7
9.87
6.41
1.55
2.04
2.7
0.27
-6.32
-0.79
-0.87
0.37
1.06
0.46
1.9

> <PUBCHEM_SHAPE_SELFOVERLAP>
1340.402

> <PUBCHEM_SHAPE_VOLUME>
344.6

> <PUBCHEM_COORDINATE_TYPE>
2
5
10

$$$$