15
 OpenBabel03292021423D

 89 93  0  0  0  0  0  0  0  0999 V2000
   11.5108    2.8859   -1.0745 C   0  0  0  0  0  0  0  0  0  0  0  0
   11.9029    1.7381   -1.8268 O   0  0  0  0  0  0  0  0  0  0  0  0
   11.3075    0.5571   -1.4636 C   0  0  0  0  0  0  0  0  0  0  0  0
   12.1718   -0.5418   -1.3693 C   0  0  0  0  0  0  0  0  0  0  0  0
   11.6633   -1.8013   -1.0554 C   0  0  0  0  0  0  0  0  0  0  0  0
   10.3050   -1.9436   -0.7418 C   0  0  0  0  0  0  0  0  0  0  0  0
    9.4333   -0.8621   -0.8904 C   0  0  0  0  0  0  0  0  0  0  0  0
    9.9218    0.3791   -1.3050 C   0  0  0  0  0  0  0  0  0  0  0  0
    9.1063    1.4202   -1.6645 O   0  0  0  0  0  0  0  0  0  0  0  0
    7.8115    1.4512   -1.0848 C   0  0  0  0  0  0  0  0  0  0  0  0
    9.8480   -3.2670   -0.1892 C   0  0  0  0  0  0  0  0  0  0  0  0
   10.3305   -4.4404   -0.9383 N   0  0  0  0  0  0  0  0  0  0  0  0
   10.4387   -5.6087   -0.0529 C   0  0  0  0  0  0  0  0  0  0  0  0
    9.1241   -5.9941    0.6534 C   0  0  0  0  0  0  0  0  0  0  0  0
    9.3684   -7.1687    1.5639 C   0  0  0  0  0  0  0  0  0  0  0  0
   10.2270   -7.0172    2.6591 C   0  0  0  0  0  0  0  0  0  0  0  0
   10.5548   -8.1065    3.4575 C   0  0  0  0  0  0  0  0  0  0  0  0
   10.0002   -9.3570    3.2023 C   0  0  0  0  0  0  0  0  0  0  0  0
   10.2913  -10.4899    3.9890 N   0  0  0  0  0  0  0  0  0  0  0  0
   10.8920  -10.4808    5.2411 C   0  0  0  0  0  0  0  0  0  0  0  0
   11.1984   -9.4994    5.9032 O   0  0  0  0  0  0  0  0  0  0  0  0
   11.0836  -11.8246    5.8488 C   0  0  0  0  0  0  0  0  0  0  0  0
   11.3942  -12.9265    5.0455 C   0  0  0  0  0  0  0  0  0  0  0  0
   11.4278  -14.1985    5.6116 C   0  0  0  0  0  0  0  0  0  0  0  0
   11.1626  -14.3689    6.9785 C   0  0  0  0  0  0  0  0  0  0  0  0
   11.2056  -15.7582    7.4854 C   0  0  0  0  0  0  0  0  0  0  0  0
   10.7542  -16.6971    6.8631 O   0  0  0  0  0  0  0  0  0  0  0  0
   11.8107  -15.8705    8.6923 O   0  0  0  0  0  0  0  0  0  0  0  0
   10.9197  -13.2606    7.8064 C   0  0  0  0  0  0  0  0  0  0  0  0
   10.6026  -13.4256    9.1814 N   0  0  0  0  0  0  0  0  0  0  0  0
   11.2713  -12.7391   10.1841 C   0  0  0  0  0  0  0  0  0  0  0  0
   12.2177  -11.9892    9.9743 O   0  0  0  0  0  0  0  0  0  0  0  0
   10.8426  -12.9864   11.5951 C   0  0  0  0  0  0  0  0  0  0  0  0
   11.0429  -11.9474   12.5095 C   0  0  0  0  0  0  0  0  0  0  0  0
   10.6144  -12.0748   13.8345 C   0  0  0  0  0  0  0  0  0  0  0  0
   10.0001  -13.2278   14.2922 C   0  0  0  0  0  0  0  0  0  0  0  0
    9.5632  -13.2702   15.5621 N   0  0  0  0  0  0  0  0  0  0  0  0
    8.9912  -14.4113   15.9995 C   0  0  0  0  0  0  0  0  0  0  0  0
    8.8639  -15.5487   15.2262 C   0  0  0  0  0  0  0  0  0  0  0  0
    9.3117  -15.4981   13.9087 C   0  0  0  0  0  0  0  0  0  0  0  0
    9.8670  -14.3139   13.3985 C   0  0  0  0  0  0  0  0  0  0  0  0
   10.2819  -14.1865   12.0506 C   0  0  0  0  0  0  0  0  0  0  0  0
   10.9080  -11.9805    7.2335 C   0  0  0  0  0  0  0  0  0  0  0  0
    9.1325   -9.5127    2.1129 C   0  0  0  0  0  0  0  0  0  0  0  0
    8.8098   -8.4212    1.3021 C   0  0  0  0  0  0  0  0  0  0  0  0
   11.6156   -4.2063   -1.6373 C   0  0  0  0  0  0  0  0  0  0  0  0
   12.4888   -3.0610   -1.0829 C   0  0  0  0  0  0  0  0  0  0  0  0
    1.2068    2.4396    0.2597 O   0  0  0  0  0  0  0  0  0  0  0  0
    2.2626    1.8237    0.1767 C   0  0  0  0  0  0  0  0  0  0  0  0
    2.6582    1.2526   -1.0036 O   0  0  0  0  0  0  0  0  0  0  0  0
    3.2580    1.5944    1.3196 C   0  0  0  0  0  0  0  0  0  0  0  0
    4.3725    0.9490    0.8523 F   0  0  0  0  0  0  0  0  0  0  0  0
    3.6980    2.7452    1.8919 F   0  0  0  0  0  0  0  0  0  0  0  0
    2.7593    0.8140    2.3138 F   0  0  0  0  0  0  0  0  0  0  0  0
   11.6027    3.7556   -1.7319 H   0  0  0  0  0  0  0  0  0  0  0  0
   12.1918    3.0208   -0.2288 H   0  0  0  0  0  0  0  0  0  0  0  0
   10.4913    2.8775   -0.6849 H   0  0  0  0  0  0  0  0  0  0  0  0
   13.2313   -0.4110   -1.5729 H   0  0  0  0  0  0  0  0  0  0  0  0
    8.3751   -1.0266   -0.7211 H   0  0  0  0  0  0  0  0  0  0  0  0
    7.3948    2.4457   -1.2694 H   0  0  0  0  0  0  0  0  0  0  0  0
    7.8535    1.3033   -0.0006 H   0  0  0  0  0  0  0  0  0  0  0  0
    7.1520    0.7190   -1.5605 H   0  0  0  0  0  0  0  0  0  0  0  0
    8.7529   -3.2978   -0.1541 H   0  0  0  0  0  0  0  0  0  0  0  0
   10.2031   -3.2922    0.8521 H   0  0  0  0  0  0  0  0  0  0  0  0
   11.2292   -5.4231    0.6871 H   0  0  0  0  0  0  0  0  0  0  0  0
   10.7646   -6.4777   -0.6405 H   0  0  0  0  0  0  0  0  0  0  0  0
    8.3528   -6.2290   -0.0903 H   0  0  0  0  0  0  0  0  0  0  0  0
    8.7309   -5.1740    1.2664 H   0  0  0  0  0  0  0  0  0  0  0  0
   10.6751   -6.0524    2.8861 H   0  0  0  0  0  0  0  0  0  0  0  0
   11.2675   -7.9476    4.2602 H   0  0  0  0  0  0  0  0  0  0  0  0
    9.9060  -11.3633    3.6554 H   0  0  0  0  0  0  0  0  0  0  0  0
   11.6150  -12.8085    3.9868 H   0  0  0  0  0  0  0  0  0  0  0  0
   11.6639  -15.0575    4.9854 H   0  0  0  0  0  0  0  0  0  0  0  0
   12.2851  -15.0648    8.9645 H   0  0  0  0  0  0  0  0  0  0  0  0
   10.0252  -14.2204    9.4313 H   0  0  0  0  0  0  0  0  0  0  0  0
   11.5257  -11.0227   12.1966 H   0  0  0  0  0  0  0  0  0  0  0  0
   10.7634  -11.2488   14.5269 H   0  0  0  0  0  0  0  0  0  0  0  0
    8.6294  -14.3831   17.0240 H   0  0  0  0  0  0  0  0  0  0  0  0
    8.4213  -16.4482   15.6386 H   0  0  0  0  0  0  0  0  0  0  0  0
    9.2213  -16.3861   13.2878 H   0  0  0  0  0  0  0  0  0  0  0  0
   10.1738  -15.0409   11.3882 H   0  0  0  0  0  0  0  0  0  0  0  0
   10.6891  -11.1040    7.8437 H   0  0  0  0  0  0  0  0  0  0  0  0
    8.6854  -10.4763    1.8851 H   0  0  0  0  0  0  0  0  0  0  0  0
    8.1314   -8.5572    0.4620 H   0  0  0  0  0  0  0  0  0  0  0  0
   11.3570   -3.9692   -2.6788 H   0  0  0  0  0  0  0  0  0  0  0  0
   12.2138   -5.1249   -1.6981 H   0  0  0  0  0  0  0  0  0  0  0  0
   13.3560   -2.9336   -1.7412 H   0  0  0  0  0  0  0  0  0  0  0  0
   12.8529   -3.2980   -0.0770 H   0  0  0  0  0  0  0  0  0  0  0  0
    3.5204    0.7878   -0.9248 H   0  0  0  0  0  0  0  0  0  0  0  0
  1  2  1  0  0  0  0
  1 55  1  0  0  0  0
  1 56  1  0  0  0  0
  1 57  1  0  0  0  0
  2  3  1  0  0  0  0
  3  4  1  0  0  0  0
  3  8  2  0  0  0  0
  4  5  2  0  0  0  0
  4 58  1  0  0  0  0
  5  6  1  0  0  0  0
  5 47  1  0  0  0  0
  6  7  2  0  0  0  0
  6 11  1  0  0  0  0
  7  8  1  0  0  0  0
  7 59  1  0  0  0  0
  8  9  1  0  0  0  0
  9 10  1  0  0  0  0
 10 60  1  0  0  0  0
 10 61  1  0  0  0  0
 10 62  1  0  0  0  0
 11 12  1  0  0  0  0
 11 63  1  0  0  0  0
 11 64  1  0  0  0  0
 12 13  1  0  0  0  0
 12 46  1  0  0  0  0
 13 14  1  0  0  0  0
 13 65  1  0  0  0  0
 13 66  1  0  0  0  0
 14 15  1  0  0  0  0
 14 67  1  0  0  0  0
 14 68  1  0  0  0  0
 15 16  1  0  0  0  0
 15 45  2  0  0  0  0
 16 17  2  0  0  0  0
 16 69  1  0  0  0  0
 17 18  1  0  0  0  0
 17 70  1  0  0  0  0
 18 19  1  0  0  0  0
 18 44  2  0  0  0  0
 19 20  1  0  0  0  0
 19 71  1  0  0  0  0
 20 21  2  0  0  0  0
 20 22  1  0  0  0  0
 22 23  1  0  0  0  0
 22 43  2  0  0  0  0
 23 24  2  0  0  0  0
 23 72  1  0  0  0  0
 24 25  1  0  0  0  0
 24 73  1  0  0  0  0
 25 26  1  0  0  0  0
 25 29  2  0  0  0  0
 26 27  2  0  0  0  0
 26 28  1  0  0  0  0
 28 74  1  0  0  0  0
 29 30  1  0  0  0  0
 29 43  1  0  0  0  0
 30 31  1  0  0  0  0
 30 75  1  0  0  0  0
 31 32  2  0  0  0  0
 31 33  1  0  0  0  0
 33 34  1  0  0  0  0
 33 42  2  0  0  0  0
 34 35  2  0  0  0  0
 34 76  1  0  0  0  0
 35 36  1  0  0  0  0
 35 77  1  0  0  0  0
 36 37  1  0  0  0  0
 36 41  2  0  0  0  0
 37 38  2  0  0  0  0
 38 39  1  0  0  0  0
 38 78  1  0  0  0  0
 39 40  2  0  0  0  0
 39 79  1  0  0  0  0
 40 41  1  0  0  0  0
 40 80  1  0  0  0  0
 41 42  1  0  0  0  0
 42 81  1  0  0  0  0
 43 82  1  0  0  0  0
 44 45  1  0  0  0  0
 44 83  1  0  0  0  0
 45 84  1  0  0  0  0
 46 47  1  0  0  0  0
 46 85  1  0  0  0  0
 46 86  1  0  0  0  0
 47 87  1  0  0  0  0
 47 88  1  0  0  0  0
 48 49  2  0  0  0  0
 49 50  1  0  0  0  0
 49 51  1  0  0  0  0
 50 89  1  0  0  0  0
 51 52  1  0  0  0  0
 51 53  1  0  0  0  0
 51 54  1  0  0  0  0
M  END
>  <Energy>
244.825

$$$$