2
 OpenBabel03292022243D

171174  0  0  1  0  0  0  0  0999 V2000
    4.2724   -0.8224   -6.1787 C   0  0  0  0  0  0  0  0  0  0  0  0
    4.8096    0.5487   -6.6665 C   0  0  0  0  0  0  0  0  0  0  0  0
    4.7944    1.6178   -5.5499 C   0  0  2  0  0  0  0  0  0  0  0  0
    5.4811    0.8920   -4.3138 C   0  0  0  0  0  0  0  0  0  0  0  0
    5.5144    3.0641   -5.8842 C   0  0  2  0  0  0  0  0  0  0  0  0
    5.0628    4.1170   -7.0994 N   0  0  0  0  0  0  0  0  0  0  0  0
    5.9482    4.6718   -8.1426 C   0  0  0  0  0  0  0  0  0  0  0  0
    6.9682    3.9746   -8.3133 O   0  0  0  0  0  0  0  0  0  0  0  0
    5.7136    6.0082   -9.4225 C   0  0  2  0  0  0  0  0  0  0  0  0
    7.0398    6.7018   -9.8643 C   0  0  0  0  0  0  0  0  0  0  0  0
    6.9486    8.1945   -9.4917 C   0  0  0  0  0  0  0  0  0  0  0  0
    5.4790    8.4045   -9.1469 C   0  0  0  0  0  0  0  0  0  0  0  0
    4.8478    7.2586   -9.7688 N   0  0  0  0  0  0  0  0  0  0  0  0
    4.2151    7.6904  -11.0057 C   0  0  0  0  0  0  0  0  0  0  0  0
    3.5817    8.7607  -11.0115 O   0  0  0  0  0  0  0  0  0  0  0  0
    4.3670    6.9434  -12.3804 C   0  0  2  0  0  0  0  0  0  0  0  0
    3.8300    7.6970  -13.6558 C   0  0  0  0  0  0  0  0  0  0  0  0
    4.6403    8.6523  -14.5258 C   0  0  0  0  0  0  0  0  0  0  0  0
    5.8536    8.2775  -15.1240 C   0  0  0  0  0  0  0  0  0  0  0  0
    6.4223    9.0588  -16.1436 C   0  0  0  0  0  0  0  0  0  0  0  0
    5.7868   10.2156  -16.5940 C   0  0  0  0  0  0  0  0  0  0  0  0
    4.5857   10.6042  -16.0123 C   0  0  0  0  0  0  0  0  0  0  0  0
    4.0187    9.8288  -14.9926 C   0  0  0  0  0  0  0  0  0  0  0  0
    3.6586    5.6522  -12.1899 N   0  0  0  0  0  0  0  0  0  0  0  0
    2.3355    5.4556  -12.7647 C   0  0  0  0  0  0  0  0  0  0  0  0
    4.4760    4.5673  -12.1136 C   0  0  0  0  0  0  0  0  0  0  0  0
    5.4898    4.5534  -12.8073 O   0  0  0  0  0  0  0  0  0  0  0  0
    4.1977    3.4556  -11.0954 C   0  0  2  0  0  0  0  0  0  0  0  0
    3.0676    3.6950   -9.9479 C   0  0  0  0  0  0  0  0  0  0  0  0
    2.2854    4.9827   -9.5732 C   0  0  0  0  0  0  0  0  0  0  0  0
    0.9898    5.2697  -10.0338 C   0  0  0  0  0  0  0  0  0  0  0  0
    0.3188    6.4706   -9.7434 C   0  0  0  0  0  0  0  0  0  0  0  0
    0.8855    7.4262   -8.9179 C   0  0  0  0  0  0  0  0  0  0  0  0
    2.1120    7.1492   -8.3503 C   0  0  0  0  0  0  0  0  0  0  0  0
    2.7451    5.9290   -8.6559 C   0  0  0  0  0  0  0  0  0  0  0  0
    5.5859    3.0799  -10.5078 N   0  0  0  0  0  0  0  0  0  0  0  0
    6.7118    2.7408  -11.2985 C   0  0  0  0  0  0  0  0  0  0  0  0
    6.7201    1.6248  -11.8282 O   0  0  0  0  0  0  0  0  0  0  0  0
    8.0705    3.6837  -11.2265 C   0  0  2  0  0  0  0  0  0  0  0  0
    8.8124    3.8337  -12.6224 C   0  0  0  0  0  0  0  0  0  0  0  0
    9.8949    4.9271  -12.6079 C   0  0  0  0  0  0  0  0  0  0  0  0
    7.9330    4.1503  -13.8331 C   0  0  0  0  0  0  0  0  0  0  0  0
    9.0791    3.2228  -10.1562 N   0  0  0  0  0  0  0  0  0  0  0  0
    9.3780    1.8102  -10.2215 C   0  0  0  0  0  0  0  0  0  0  0  0
    9.9043    4.1228   -9.4089 C   0  0  0  0  0  0  0  0  0  0  0  0
   10.1702    5.2545   -9.8376 O   0  0  0  0  0  0  0  0  0  0  0  0
   10.3072    3.8335   -7.8632 C   0  0  1  0  0  0  0  0  0  0  0  0
   11.1280    2.6128   -7.3854 C   0  0  1  0  0  0  0  0  0  0  0  0
   10.2786    1.3330   -7.2313 C   0  0  0  0  0  0  0  0  0  0  0  0
   12.4083    2.3039   -8.1740 C   0  0  0  0  0  0  0  0  0  0  0  0
   13.4228    3.4291   -8.1572 C   0  0  0  0  0  0  0  0  0  0  0  0
   10.8818    5.1460   -7.1212 O   0  0  0  0  0  0  0  0  0  0  0  0
   10.7587    5.6346   -5.7862 C   0  0  0  0  0  0  0  0  0  0  0  0
   11.6981    5.5330   -4.9985 O   0  0  0  0  0  0  0  0  0  0  0  0
    9.4518    6.6175   -5.4384 C   0  0  3  0  0  0  0  0  0  0  0  0
    8.3539    6.0144   -6.2698 C   0  0  0  0  0  0  0  0  0  0  0  0
    8.3075    4.5863   -5.6912 C   0  0  0  0  0  0  0  0  0  0  0  0
    7.0745    6.8721   -6.3428 C   0  0  0  0  0  0  0  0  0  0  0  0
    8.6798    6.0164   -7.6419 O   0  0  0  0  0  0  0  0  0  0  0  0
    8.8849    6.9382   -3.9646 N   0  0  0  0  0  0  0  0  0  0  0  0
    9.5412    8.0395   -3.2927 C   0  0  0  0  0  0  0  0  0  0  0  0
    7.5627    6.6075   -3.5385 C   0  0  0  0  0  0  0  0  0  0  0  0
    6.7801    5.9447   -4.2132 O   0  0  0  0  0  0  0  0  0  0  0  0
    6.9018    6.9591   -2.2112 C   0  0  2  0  0  0  0  0  0  0  0  0
    7.2470    5.8771   -1.1859 C   0  0  0  0  0  0  0  0  0  0  0  0
    6.5377    5.9921    0.1750 C   0  0  0  0  0  0  0  0  0  0  0  0
    6.8666    4.7633    1.0275 C   0  0  0  0  0  0  0  0  0  0  0  0
    6.9396    7.2651    0.9173 C   0  0  0  0  0  0  0  0  0  0  0  0
    5.3934    7.1631   -2.3799 N   0  0  0  0  0  0  0  0  0  0  0  0
    4.2538    6.5598   -2.8530 C   0  0  0  0  0  0  0  0  0  0  0  0
    3.2344    7.1264   -2.4041 O   0  0  0  0  0  0  0  0  0  0  0  0
    4.0288    5.3995   -3.9502 C   0  0  2  0  0  0  0  0  0  0  0  0
    2.4731    5.1591   -4.1957 C   0  0  0  0  0  0  0  0  0  0  0  0
    2.0868    3.7726   -4.7517 C   0  0  0  0  0  0  0  0  0  0  0  0
    1.9361    6.1892   -5.1777 C   0  0  0  0  0  0  0  0  0  0  0  0
    4.6228    4.1053   -3.6440 N   0  0  0  0  0  0  0  0  0  0  0  0
    4.4027    3.6419   -2.2731 C   0  0  0  0  0  0  0  0  0  0  0  0
    5.7207    3.6151   -4.3589 C   0  0  0  0  0  0  0  0  0  0  0  0
    6.7014    3.2227   -3.7024 O   0  0  0  0  0  0  0  0  0  0  0  0
    5.0243   -1.3613   -5.5832 H   0  0  0  0  0  0  0  0  0  0  0  0
    4.0295   -1.4787   -7.0149 H   0  0  0  0  0  0  0  0  0  0  0  0
    3.3777   -0.7082   -5.5560 H   0  0  0  0  0  0  0  0  0  0  0  0
    4.2029    0.8866   -7.5039 H   0  0  0  0  0  0  0  0  0  0  0  0
    5.8339    0.3929   -7.0196 H   0  0  0  0  0  0  0  0  0  0  0  0
    3.7587    1.7971   -5.2641 H   0  0  0  0  0  0  0  0  0  0  0  0
    6.5282    0.6468   -4.5330 H   0  0  0  0  0  0  0  0  0  0  0  0
    4.9703   -0.0245   -4.0095 H   0  0  0  0  0  0  0  0  0  0  0  0
    5.4620    1.4452   -3.3792 H   0  0  0  0  0  0  0  0  0  0  0  0
    6.4751    2.6899   -6.2390 H   0  0  0  0  0  0  0  0  0  0  0  0
    4.2000    4.5824   -6.8861 H   0  0  0  0  0  0  0  0  0  0  0  0
    5.4820    5.3657  -10.2447 H   0  0  0  0  0  0  0  0  0  0  0  0
    7.1008    6.6830  -10.9624 H   0  0  0  0  0  0  0  0  0  0  0  0
    7.9517    6.2359   -9.5454 H   0  0  0  0  0  0  0  0  0  0  0  0
    7.2407    8.8070  -10.3523 H   0  0  0  0  0  0  0  0  0  0  0  0
    7.6124    8.5039   -8.6786 H   0  0  0  0  0  0  0  0  0  0  0  0
    5.1447    9.3782   -9.5132 H   0  0  0  0  0  0  0  0  0  0  0  0
    5.2740    8.3660   -8.0732 H   0  0  0  0  0  0  0  0  0  0  0  0
    5.4445    6.7993  -12.5133 H   0  0  0  0  0  0  0  0  0  0  0  0
    3.5767    6.9344  -14.4046 H   0  0  0  0  0  0  0  0  0  0  0  0
    2.8782    8.1792  -13.4013 H   0  0  0  0  0  0  0  0  0  0  0  0
    6.3371    7.3405  -14.8608 H   0  0  0  0  0  0  0  0  0  0  0  0
    7.3456    8.7399  -16.6261 H   0  0  0  0  0  0  0  0  0  0  0  0
    6.2128   10.7988  -17.4075 H   0  0  0  0  0  0  0  0  0  0  0  0
    4.0666   11.4871  -16.3772 H   0  0  0  0  0  0  0  0  0  0  0  0
    3.0475   10.1259  -14.6023 H   0  0  0  0  0  0  0  0  0  0  0  0
    2.3955    5.3966  -13.8545 H   0  0  0  0  0  0  0  0  0  0  0  0
    1.6792    6.2777  -12.4722 H   0  0  0  0  0  0  0  0  0  0  0  0
    1.9258    4.4928  -12.4525 H   0  0  0  0  0  0  0  0  0  0  0  0
    3.8920    2.5806  -11.6810 H   0  0  0  0  0  0  0  0  0  0  0  0
    2.2674    2.9872  -10.2198 H   0  0  0  0  0  0  0  0  0  0  0  0
    3.4523    3.2864   -9.0150 H   0  0  0  0  0  0  0  0  0  0  0  0
    0.4773    4.5545  -10.6935 H   0  0  0  0  0  0  0  0  0  0  0  0
   -0.6521    6.6875  -10.1858 H   0  0  0  0  0  0  0  0  0  0  0  0
    0.4008    8.3835   -8.7123 H   0  0  0  0  0  0  0  0  0  0  0  0
    2.5817    7.8537   -7.7040 H   0  0  0  0  0  0  0  0  0  0  0  0
    3.6960    5.8084   -8.1554 H   0  0  0  0  0  0  0  0  0  0  0  0
    5.4177    2.2367   -9.9712 H   0  0  0  0  0  0  0  0  0  0  0  0
    7.7317    4.6657  -10.9317 H   0  0  0  0  0  0  0  0  0  0  0  0
    9.3107    2.8874  -12.8534 H   0  0  0  0  0  0  0  0  0  0  0  0
    9.5039    5.8663  -12.1914 H   0  0  0  0  0  0  0  0  0  0  0  0
   10.2538    5.1555  -13.6168 H   0  0  0  0  0  0  0  0  0  0  0  0
   10.7701    4.6081  -12.0412 H   0  0  0  0  0  0  0  0  0  0  0  0
    7.5040    5.1591  -13.7591 H   0  0  0  0  0  0  0  0  0  0  0  0
    7.1499    3.4076  -13.9815 H   0  0  0  0  0  0  0  0  0  0  0  0
    8.5322    4.1471  -14.7529 H   0  0  0  0  0  0  0  0  0  0  0  0
    9.2172    1.4288  -11.2383 H   0  0  0  0  0  0  0  0  0  0  0  0
    8.7235    1.2698   -9.5440 H   0  0  0  0  0  0  0  0  0  0  0  0
   10.4269    1.6351  -10.0143 H   0  0  0  0  0  0  0  0  0  0  0  0
    9.3129    3.6804   -7.4813 H   0  0  0  0  0  0  0  0  0  0  0  0
   11.4489    2.8496   -6.3631 H   0  0  0  0  0  0  0  0  0  0  0  0
   10.3400    0.6751   -8.1006 H   0  0  0  0  0  0  0  0  0  0  0  0
    9.2234    1.5510   -7.0334 H   0  0  0  0  0  0  0  0  0  0  0  0
   10.6460    0.7387   -6.3880 H   0  0  0  0  0  0  0  0  0  0  0  0
   12.1911    2.0579   -9.2150 H   0  0  0  0  0  0  0  0  0  0  0  0
   12.8769    1.4086   -7.7450 H   0  0  0  0  0  0  0  0  0  0  0  0
   13.0340    4.3223   -8.6520 H   0  0  0  0  0  0  0  0  0  0  0  0
   14.3262    3.1156   -8.6911 H   0  0  0  0  0  0  0  0  0  0  0  0
   13.7048    3.6834   -7.1317 H   0  0  0  0  0  0  0  0  0  0  0  0
    9.7286    7.5969   -5.8526 H   0  0  0  0  0  0  0  0  0  0  0  0
    8.1567    4.5115   -4.6258 H   0  0  0  0  0  0  0  0  0  0  0  0
    9.2309    4.0100   -5.7021 H   0  0  0  0  0  0  0  0  0  0  0  0
    7.6339    3.9919   -6.2443 H   0  0  0  0  0  0  0  0  0  0  0  0
    7.0753    7.7536   -5.6965 H   0  0  0  0  0  0  0  0  0  0  0  0
    6.1562    6.3026   -6.1976 H   0  0  0  0  0  0  0  0  0  0  0  0
    6.9375    7.2851   -7.3196 H   0  0  0  0  0  0  0  0  0  0  0  0
    9.6105    6.2313   -7.8432 H   0  0  0  0  0  0  0  0  0  0  0  0
   10.5700    8.1388   -3.6390 H   0  0  0  0  0  0  0  0  0  0  0  0
    9.5274    7.8881   -2.2114 H   0  0  0  0  0  0  0  0  0  0  0  0
    8.9855    8.9563   -3.5266 H   0  0  0  0  0  0  0  0  0  0  0  0
    7.2632    7.9380   -1.8839 H   0  0  0  0  0  0  0  0  0  0  0  0
    7.0285    4.8967   -1.6183 H   0  0  0  0  0  0  0  0  0  0  0  0
    8.3340    5.8765   -1.0304 H   0  0  0  0  0  0  0  0  0  0  0  0
    5.4514    6.0056    0.0262 H   0  0  0  0  0  0  0  0  0  0  0  0
    7.9462    4.6643    1.1822 H   0  0  0  0  0  0  0  0  0  0  0  0
    6.5103    3.8479    0.5428 H   0  0  0  0  0  0  0  0  0  0  0  0
    6.3857    4.8265    2.0093 H   0  0  0  0  0  0  0  0  0  0  0  0
    8.0245    7.3136    1.0585 H   0  0  0  0  0  0  0  0  0  0  0  0
    6.4681    7.3034    1.9051 H   0  0  0  0  0  0  0  0  0  0  0  0
    6.6263    8.1597    0.3709 H   0  0  0  0  0  0  0  0  0  0  0  0
    5.0637    7.8761   -1.7462 H   0  0  0  0  0  0  0  0  0  0  0  0
    4.4607    5.7703   -4.8845 H   0  0  0  0  0  0  0  0  0  0  0  0
    1.9245    5.2654   -3.2521 H   0  0  0  0  0  0  0  0  0  0  0  0
    2.6006    3.5609   -5.6925 H   0  0  0  0  0  0  0  0  0  0  0  0
    1.0125    3.7124   -4.9634 H   0  0  0  0  0  0  0  0  0  0  0  0
    2.2971    2.9744   -4.0337 H   0  0  0  0  0  0  0  0  0  0  0  0
    2.5406    6.1326   -6.0767 H   0  0  0  0  0  0  0  0  0  0  0  0
    1.9941    7.2049   -4.7893 H   0  0  0  0  0  0  0  0  0  0  0  0
    0.8945    5.9838   -5.4583 H   0  0  0  0  0  0  0  0  0  0  0  0
    3.5407    4.1390   -1.8225 H   0  0  0  0  0  0  0  0  0  0  0  0
    5.2802    3.7918   -1.6567 H   0  0  0  0  0  0  0  0  0  0  0  0
    4.1698    2.5727   -2.2951 H   0  0  0  0  0  0  0  0  0  0  0  0
  1  2  1  0  0  0  0
  1 80  1  0  0  0  0
  1 81  1  0  0  0  0
  1 82  1  0  0  0  0
  2 83  1  0  0  0  0
  2 84  1  0  0  0  0
  3  4  1  0  0  0  0
  3  2  1  0  0  0  0
  3 85  1  6  0  0  0
  4 86  1  0  0  0  0
  4 87  1  0  0  0  0
  4 88  1  0  0  0  0
  5  6  1  0  0  0  0
  5 78  1  0  0  0  0
  5  3  1  0  0  0  0
  5 89  1  1  0  0  0
  6  7  1  0  0  0  0
  6 90  1  0  0  0  0
  7  8  2  0  0  0  0
  7  9  1  0  0  0  0
  9 10  1  0  0  0  0
  9 13  1  0  0  0  0
  9 91  1  6  0  0  0
 10 11  1  0  0  0  0
 10 92  1  0  0  0  0
 10 93  1  0  0  0  0
 11 12  1  0  0  0  0
 11 94  1  0  0  0  0
 11 95  1  0  0  0  0
 12 13  1  0  0  0  0
 12 96  1  0  0  0  0
 12 97  1  0  0  0  0
 13 14  1  0  0  0  0
 14 15  2  0  0  0  0
 14 16  1  0  0  0  0
 16 24  1  0  0  0  0
 16 17  1  0  0  0  0
 16 98  1  6  0  0  0
 17 18  1  0  0  0  0
 17 99  1  0  0  0  0
 17100  1  0  0  0  0
 18 19  1  0  0  0  0
 18 23  2  0  0  0  0
 19 20  2  0  0  0  0
 19101  1  0  0  0  0
 20 21  1  0  0  0  0
 20102  1  0  0  0  0
 21 22  2  0  0  0  0
 21103  1  0  0  0  0
 22 23  1  0  0  0  0
 22104  1  0  0  0  0
 23105  1  0  0  0  0
 24 25  1  0  0  0  0
 24 26  1  0  0  0  0
 25106  1  0  0  0  0
 25107  1  0  0  0  0
 25108  1  0  0  0  0
 26 27  2  0  0  0  0
 26 28  1  0  0  0  0
 28 36  1  0  0  0  0
 28 29  1  0  0  0  0
 28109  1  6  0  0  0
 29 30  1  0  0  0  0
 29110  1  0  0  0  0
 29111  1  0  0  0  0
 30 31  1  0  0  0  0
 30 35  2  0  0  0  0
 31 32  2  0  0  0  0
 31112  1  0  0  0  0
 32 33  1  0  0  0  0
 32113  1  0  0  0  0
 33 34  2  0  0  0  0
 33114  1  0  0  0  0
 34 35  1  0  0  0  0
 34115  1  0  0  0  0
 35116  1  0  0  0  0
 36 37  1  0  0  0  0
 36117  1  0  0  0  0
 37 38  2  0  0  0  0
 37 39  1  0  0  0  0
 39 43  1  0  0  0  0
 39 40  1  0  0  0  0
 39118  1  1  0  0  0
 40 41  1  0  0  0  0
 40 42  1  0  0  0  0
 40119  1  0  0  0  0
 41120  1  0  0  0  0
 41121  1  0  0  0  0
 41122  1  0  0  0  0
 42123  1  0  0  0  0
 42124  1  0  0  0  0
 42125  1  0  0  0  0
 43 44  1  0  0  0  0
 43 45  1  0  0  0  0
 44126  1  0  0  0  0
 44127  1  0  0  0  0
 44128  1  0  0  0  0
 45 46  2  0  0  0  0
 45 47  1  0  0  0  0
 47 48  1  0  0  0  0
 47 52  1  0  0  0  0
 47129  1  1  0  0  0
 48 49  1  0  0  0  0
 48 50  1  0  0  0  0
 48130  1  1  0  0  0
 49131  1  0  0  0  0
 49132  1  0  0  0  0
 49133  1  0  0  0  0
 50 51  1  0  0  0  0
 50134  1  0  0  0  0
 50135  1  0  0  0  0
 51136  1  0  0  0  0
 51137  1  0  0  0  0
 51138  1  0  0  0  0
 52 53  1  0  0  0  0
 53 54  2  0  0  0  0
 53 55  1  0  0  0  0
 55 56  1  0  0  0  0
 55 60  1  0  0  0  0
 55139  1  0  0  0  0
 56 57  1  0  0  0  0
 56 58  1  0  0  0  0
 56 59  1  0  0  0  0
 57140  1  0  0  0  0
 57141  1  0  0  0  0
 57142  1  0  0  0  0
 58143  1  0  0  0  0
 58144  1  0  0  0  0
 58145  1  0  0  0  0
 59146  1  0  0  0  0
 60 61  1  0  0  0  0
 60 62  1  0  0  0  0
 61147  1  0  0  0  0
 61148  1  0  0  0  0
 61149  1  0  0  0  0
 62 63  2  0  0  0  0
 62 64  1  0  0  0  0
 64 69  1  0  0  0  0
 64 65  1  0  0  0  0
 64150  1  1  0  0  0
 65 66  1  0  0  0  0
 65151  1  0  0  0  0
 65152  1  0  0  0  0
 66 67  1  0  0  0  0
 66 68  1  0  0  0  0
 66153  1  0  0  0  0
 67154  1  0  0  0  0
 67155  1  0  0  0  0
 67156  1  0  0  0  0
 68157  1  0  0  0  0
 68158  1  0  0  0  0
 68159  1  0  0  0  0
 69 70  1  0  0  0  0
 69160  1  0  0  0  0
 70 71  2  0  0  0  0
 70 72  1  0  0  0  0
 72 76  1  0  0  0  0
 72 73  1  0  0  0  0
 72161  1  6  0  0  0
 73 74  1  0  0  0  0
 73 75  1  0  0  0  0
 73162  1  0  0  0  0
 74163  1  0  0  0  0
 74164  1  0  0  0  0
 74165  1  0  0  0  0
 75166  1  0  0  0  0
 75167  1  0  0  0  0
 75168  1  0  0  0  0
 76 77  1  0  0  0  0
 76 78  1  0  0  0  0
 77169  1  0  0  0  0
 77170  1  0  0  0  0
 77171  1  0  0  0  0
 78 79  2  0  0  0  0
M  END
>  <Energy>
738.79

$$$$