3036703
  -OEChem-03242010103D

 70 76  0     1  0  0  0  0  0999 V2000
   -6.4427   -1.0900   -0.7151 F   0  0  0  0  0  0  0  0  0  0  0  0
   -6.3403   -0.1058   -2.7047 F   0  0  0  0  0  0  0  0  0  0  0  0
    3.7478    3.1707   -2.6930 O   0  0  0  0  0  0  0  0  0  0  0  0
    5.0404    1.5627   -0.7954 O   0  0  0  0  0  0  0  0  0  0  0  0
   -1.5840    0.6329   -0.0287 N   0  0  0  0  0  0  0  0  0  0  0  0
    0.7886    2.1365   -0.7137 N   0  0  0  0  0  0  0  0  0  0  0  0
    6.7353   -2.6300    0.8870 N   0  0  0  0  0  0  0  0  0  0  0  0
   -4.1472   -0.6096   -1.5856 C   0  0  2  0  0  0  0  0  0  0  0  0
   -4.6835    0.6692   -0.9811 C   0  0  1  0  0  0  0  0  0  0  0  0
   -5.6320   -0.3542   -1.5498 C   0  0  0  0  0  0  0  0  0  0  0  0
   -3.5725   -1.7430   -0.7672 C   0  0  0  0  0  0  0  0  0  0  0  0
   -4.6990    0.9474    0.5044 C   0  0  0  0  0  0  0  0  0  0  0  0
   -2.4058   -0.1555    0.8873 C   0  0  0  0  0  0  0  0  0  0  0  0
   -2.7426   -1.5457    0.3615 C   0  0  0  0  0  0  0  0  0  0  0  0
   -3.6393    0.5966    1.3736 C   0  0  0  0  0  0  0  0  0  0  0  0
   -3.8409   -3.0702   -1.1627 C   0  0  0  0  0  0  0  0  0  0  0  0
   -5.8061    1.6249    1.0570 C   0  0  0  0  0  0  0  0  0  0  0  0
   -0.3050   -0.0384   -0.2909 C   0  0  0  0  0  0  0  0  0  0  0  0
   -1.3555    1.9814    0.5049 C   0  0  0  0  0  0  0  0  0  0  0  0
   -2.2261   -2.6622    1.0500 C   0  0  0  0  0  0  0  0  0  0  0  0
   -3.7242    0.9215    2.7427 C   0  0  0  0  0  0  0  0  0  0  0  0
    0.5591    0.7889   -1.2490 C   0  0  0  0  0  0  0  0  0  0  0  0
   -0.4903    2.8083   -0.4524 C   0  0  0  0  0  0  0  0  0  0  0  0
   -3.3230   -4.1653   -0.4719 C   0  0  0  0  0  0  0  0  0  0  0  0
   -5.8768    1.9397    2.4137 C   0  0  0  0  0  0  0  0  0  0  0  0
   -2.5140   -3.9605    0.6361 C   0  0  0  0  0  0  0  0  0  0  0  0
   -4.8337    1.5875    3.2576 C   0  0  0  0  0  0  0  0  0  0  0  0
    1.6118    2.9250   -1.6282 C   0  0  0  0  0  0  0  0  0  0  0  0
    3.0036    2.3174   -1.8188 C   0  0  2  0  0  0  0  0  0  0  0  0
    3.7800    2.1629   -0.5130 C   0  0  0  0  0  0  0  0  0  0  0  0
    5.5952    0.8005    0.1976 C   0  0  0  0  0  0  0  0  0  0  0  0
    5.8784   -0.5595    0.0004 C   0  0  0  0  0  0  0  0  0  0  0  0
    5.8720    1.4136    1.4140 C   0  0  0  0  0  0  0  0  0  0  0  0
    6.4499   -1.3230    1.0398 C   0  0  0  0  0  0  0  0  0  0  0  0
    6.4349    0.6676    2.4421 C   0  0  0  0  0  0  0  0  0  0  0  0
    5.6085   -1.1995   -1.2167 C   0  0  0  0  0  0  0  0  0  0  0  0
    6.7179   -0.6868    2.2487 C   0  0  0  0  0  0  0  0  0  0  0  0
    5.9015   -2.5460   -1.3771 C   0  0  0  0  0  0  0  0  0  0  0  0
    6.4595   -3.2100   -0.3036 C   0  0  0  0  0  0  0  0  0  0  0  0
   -3.6763   -0.4849   -2.5600 H   0  0  0  0  0  0  0  0  0  0  0  0
   -4.5323    1.5562   -1.5950 H   0  0  0  0  0  0  0  0  0  0  0  0
   -1.7899   -0.3151    1.7861 H   0  0  0  0  0  0  0  0  0  0  0  0
   -4.4682   -3.2533   -2.0334 H   0  0  0  0  0  0  0  0  0  0  0  0
   -6.6326    1.9165    0.4112 H   0  0  0  0  0  0  0  0  0  0  0  0
    0.2494   -0.2130    0.6415 H   0  0  0  0  0  0  0  0  0  0  0  0
   -0.4603   -1.0126   -0.7678 H   0  0  0  0  0  0  0  0  0  0  0  0
   -2.2888    2.5428    0.6174 H   0  0  0  0  0  0  0  0  0  0  0  0
   -0.8707    1.9400    1.4902 H   0  0  0  0  0  0  0  0  0  0  0  0
   -1.5913   -2.5258    1.9227 H   0  0  0  0  0  0  0  0  0  0  0  0
   -2.9198    0.6535    3.4241 H   0  0  0  0  0  0  0  0  0  0  0  0
    0.0794    0.8333   -2.2362 H   0  0  0  0  0  0  0  0  0  0  0  0
    1.4977    0.2378   -1.3626 H   0  0  0  0  0  0  0  0  0  0  0  0
   -0.3073    3.7871    0.0076 H   0  0  0  0  0  0  0  0  0  0  0  0
   -1.0390    2.9838   -1.3879 H   0  0  0  0  0  0  0  0  0  0  0  0
   -3.5509   -5.1741   -0.8029 H   0  0  0  0  0  0  0  0  0  0  0  0
   -6.7447    2.4609    2.8062 H   0  0  0  0  0  0  0  0  0  0  0  0
   -2.1066   -4.8079    1.1792 H   0  0  0  0  0  0  0  0  0  0  0  0
   -4.8812    1.8294    4.3150 H   0  0  0  0  0  0  0  0  0  0  0  0
    1.7320    3.9430   -1.2329 H   0  0  0  0  0  0  0  0  0  0  0  0
    1.1278    3.0444   -2.6072 H   0  0  0  0  0  0  0  0  0  0  0  0
    2.9607    1.3577   -2.3424 H   0  0  0  0  0  0  0  0  0  0  0  0
    3.9650    3.1462   -0.0647 H   0  0  0  0  0  0  0  0  0  0  0  0
    3.2171    1.5470    0.1985 H   0  0  0  0  0  0  0  0  0  0  0  0
    3.8384    4.0369   -2.2602 H   0  0  0  0  0  0  0  0  0  0  0  0
    5.6662    2.4680    1.5739 H   0  0  0  0  0  0  0  0  0  0  0  0
    6.6576    1.1365    3.3961 H   0  0  0  0  0  0  0  0  0  0  0  0
    5.1678   -0.6612   -2.0525 H   0  0  0  0  0  0  0  0  0  0  0  0
    7.1592   -1.2490    3.0697 H   0  0  0  0  0  0  0  0  0  0  0  0
    5.6992   -3.0568   -2.3111 H   0  0  0  0  0  0  0  0  0  0  0  0
    6.7097   -4.2636   -0.3705 H   0  0  0  0  0  0  0  0  0  0  0  0
  1 10  1  0  0  0  0
  2 10  1  0  0  0  0
  3 29  1  0  0  0  0
  3 64  1  0  0  0  0
  4 30  1  0  0  0  0
  4 31  1  0  0  0  0
  5 13  1  0  0  0  0
  5 18  1  0  0  0  0
  5 19  1  0  0  0  0
  6 22  1  0  0  0  0
  6 23  1  0  0  0  0
  6 28  1  0  0  0  0
  7 34  1  0  0  0  0
  7 39  2  0  0  0  0
  8  9  1  0  0  0  0
  8 10  1  0  0  0  0
  8 11  1  0  0  0  0
  8 40  1  0  0  0  0
  9 10  1  0  0  0  0
  9 12  1  0  0  0  0
  9 41  1  0  0  0  0
 11 14  1  0  0  0  0
 11 16  2  0  0  0  0
 12 15  1  0  0  0  0
 12 17  2  0  0  0  0
 13 14  1  0  0  0  0
 13 15  1  0  0  0  0
 13 42  1  0  0  0  0
 14 20  2  0  0  0  0
 15 21  2  0  0  0  0
 16 24  1  0  0  0  0
 16 43  1  0  0  0  0
 17 25  1  0  0  0  0
 17 44  1  0  0  0  0
 18 22  1  0  0  0  0
 18 45  1  0  0  0  0
 18 46  1  0  0  0  0
 19 23  1  0  0  0  0
 19 47  1  0  0  0  0
 19 48  1  0  0  0  0
 20 26  1  0  0  0  0
 20 49  1  0  0  0  0
 21 27  1  0  0  0  0
 21 50  1  0  0  0  0
 22 51  1  0  0  0  0
 22 52  1  0  0  0  0
 23 53  1  0  0  0  0
 23 54  1  0  0  0  0
 24 26  2  0  0  0  0
 24 55  1  0  0  0  0
 25 27  2  0  0  0  0
 25 56  1  0  0  0  0
 26 57  1  0  0  0  0
 27 58  1  0  0  0  0
 28 29  1  0  0  0  0
 28 59  1  0  0  0  0
 28 60  1  0  0  0  0
 29 30  1  0  0  0  0
 29 61  1  0  0  0  0
 30 62  1  0  0  0  0
 30 63  1  0  0  0  0
 31 32  1  0  0  0  0
 31 33  2  0  0  0  0
 32 34  2  0  0  0  0
 32 36  1  0  0  0  0
 33 35  1  0  0  0  0
 33 65  1  0  0  0  0
 34 37  1  0  0  0  0
 35 37  2  0  0  0  0
 35 66  1  0  0  0  0
 36 38  2  0  0  0  0
 36 67  1  0  0  0  0
 37 68  1  0  0  0  0
 38 39  1  0  0  0  0
 38 69  1  0  0  0  0
 39 70  1  0  0  0  0
M  END
> <PUBCHEM_COMPOUND_CID>
3036703

> <PUBCHEM_CONFORMER_RMSD>
1

> <PUBCHEM_CONFORMER_DIVERSEORDER>
1
77
114
66
109
42
102
7
22
87
65
43
12
113
16
104
84
13
41
80
55
75
30
45
78
47
25
68
19
52
58
31
90
6
85
39
26
62
18
76
51
93
72
38
74
21
24
111
67
50
107
115
97
15
23
108
69
32
98
53
34
60
106
64
88
54
105
35
96
3
44
27
29
56
100
49
86
59
82
61
37
63
46
40
73
92
71
5
103
11
99
8
17
94
110
79
81
70
9
48
57
112
89
10
4
101
20
2
83
33
91
36
95
28
14

> <PUBCHEM_MMFF94_PARTIAL_CHARGES>
55
1 -0.23
10 0.46
11 -0.03
12 -0.03
13 0.56
14 -0.14
15 -0.14
16 -0.15
17 -0.15
18 0.27
19 0.27
2 -0.23
20 -0.15
21 -0.15
22 0.27
23 0.27
24 -0.15
25 -0.15
26 -0.15
27 -0.15
28 0.27
29 0.28
3 -0.68
30 0.28
31 0.08
33 -0.15
34 0.31
35 -0.15
36 -0.15
37 -0.15
38 -0.15
39 0.16
4 -0.36
40 0.1
41 0.1
43 0.15
44 0.15
49 0.15
5 -0.81
50 0.15
55 0.15
56 0.15
57 0.15
58 0.15
6 -0.81
64 0.4
65 0.15
66 0.15
67 0.15
68 0.15
69 0.15
7 -0.62
70 0.15
8 -0.07
9 -0.07

> <PUBCHEM_EFFECTIVE_ROTOR_COUNT>
7.6

> <PUBCHEM_PHARMACOPHORE_FEATURES>
12
1 3 acceptor
1 3 donor
1 4 acceptor
1 5 cation
1 6 cation
1 7 acceptor
6 11 14 16 20 24 26 rings
6 12 15 17 21 25 27 rings
6 31 32 33 34 35 37 rings
6 5 6 18 19 22 23 rings
6 7 32 34 36 38 39 rings
7 8 9 11 12 13 14 15 rings

> <PUBCHEM_HEAVY_ATOM_COUNT>
39

> <PUBCHEM_ATOM_DEF_STEREO_COUNT>
3

> <PUBCHEM_ATOM_UDEF_STEREO_COUNT>
0

> <PUBCHEM_BOND_DEF_STEREO_COUNT>
0

> <PUBCHEM_BOND_UDEF_STEREO_COUNT>
0

> <PUBCHEM_ISOTOPIC_ATOM_COUNT>
0

> <PUBCHEM_COMPONENT_COUNT>
1

> <PUBCHEM_CACTVS_TAUTO_COUNT>
1

> <PUBCHEM_CONFORMER_ID>
002E561F00000001

> <PUBCHEM_MMFF94_ENERGY>
123.2049

> <PUBCHEM_FEATURE_SELFOVERLAP>
60.951

> <PUBCHEM_SHAPE_FINGERPRINT>
10677351 27 18262535770296423286
11007060 377 18409161083452616331
11135926 11 17315085600220881068
11377469 6 17240778233161145740
11443803 9 17417537900802828161
12128747 34 17703783713446177096
12422481 6 18341338799292992364
13782708 43 16733559324242395057
14118638 360 18046354303442015708
15001296 14 18187358883218574138
15183329 4 18335139817027978588
15320291 9 18191589872930770314
15392192 29 18261689095130573138
16096371 109 13470412115792107364
16993089 31 16950291728105493947
21599406 157 13695585547055475738
23559900 14 18337662126476639119
23572383 38 18339920510971509918
312425 54 18131071511517233776
3383291 50 18410575115446275459
354706 109 18127105534300138610
394071 54 18259989301709606168
5080951 261 17489294258113433013
5085150 59 18059855090892913327
550186 72 10015869781898014147
57816373 69 18271251509017862772
9555976 147 17917999390184124986

> <PUBCHEM_SHAPE_MULTIPOLES>
761.37
21.08
4.4
2.63
23.52
3.33
-0.8
5.25
-5.36
0.22
0.88
-0.95
-1.6
-3.41

> <PUBCHEM_SHAPE_SELFOVERLAP>
1683.411

> <PUBCHEM_SHAPE_VOLUME>
404.9

> <PUBCHEM_COORDINATE_TYPE>
2
5
10

$$$$