65218
  -OEChem-03242010103D

 42 45  0     0  0  0  0  0  0999 V2000
   -0.8389    2.5847    0.0242 O   0  0  0  0  0  0  0  0  0  0  0  0
   -0.6231   -2.2623    2.0524 O   0  0  0  0  0  0  0  0  0  0  0  0
    1.5023   -1.4463    2.3926 O   0  0  0  0  0  0  0  0  0  0  0  0
   -5.4251    1.2689   -0.2314 N   0  0  0  0  0  0  0  0  0  0  0  0
    3.6502    4.1242    0.3255 N   0  0  0  0  0  0  0  0  0  0  0  0
    0.1234   -0.0615   -0.5044 C   0  0  0  0  0  0  0  0  0  0  0  0
   -1.3258    0.2586   -0.4384 C   0  0  0  0  0  0  0  0  0  0  0  0
    1.0041    0.9565   -0.3025 C   0  0  0  0  0  0  0  0  0  0  0  0
    0.6252   -1.4140   -0.7741 C   0  0  0  0  0  0  0  0  0  0  0  0
   -1.7316    1.5671   -0.1773 C   0  0  0  0  0  0  0  0  0  0  0  0
    0.5219    2.3197   -0.0301 C   0  0  0  0  0  0  0  0  0  0  0  0
   -2.3199   -0.7151   -0.6305 C   0  0  0  0  0  0  0  0  0  0  0  0
    2.4587    0.7540   -0.3447 C   0  0  0  0  0  0  0  0  0  0  0  0
    0.8727   -2.3082    0.2605 C   0  0  0  0  0  0  0  0  0  0  0  0
   -3.0862    1.9073   -0.1078 C   0  0  0  0  0  0  0  0  0  0  0  0
    1.3744    3.3350    0.1713 C   0  0  0  0  0  0  0  0  0  0  0  0
    0.8477   -1.7795   -2.0968 C   0  0  0  0  0  0  0  0  0  0  0  0
   -4.0587    0.9311   -0.3007 C   0  0  0  0  0  0  0  0  0  0  0  0
   -3.6755   -0.3804   -0.5620 C   0  0  0  0  0  0  0  0  0  0  0  0
    3.3272    1.7533   -0.1467 C   0  0  0  0  0  0  0  0  0  0  0  0
    2.8443    3.1300    0.1285 C   0  0  0  0  0  0  0  0  0  0  0  0
    1.3495   -3.5862   -0.0312 C   0  0  0  0  0  0  0  0  0  0  0  0
    1.3244   -3.0576   -2.3884 C   0  0  0  0  0  0  0  0  0  0  0  0
    1.5755   -3.9609   -1.3557 C   0  0  0  0  0  0  0  0  0  0  0  0
    0.6494   -1.9567    1.6581 C   0  0  0  0  0  0  0  0  0  0  0  0
   -0.9660   -1.9617    3.4096 C   0  0  0  0  0  0  0  0  0  0  0  0
   -2.0640   -1.7514   -0.8366 H   0  0  0  0  0  0  0  0  0  0  0  0
    2.8711   -0.2296   -0.5406 H   0  0  0  0  0  0  0  0  0  0  0  0
   -3.3744    2.9359    0.0974 H   0  0  0  0  0  0  0  0  0  0  0  0
    1.0159    4.3395    0.3720 H   0  0  0  0  0  0  0  0  0  0  0  0
    0.6566   -1.0880   -2.9136 H   0  0  0  0  0  0  0  0  0  0  0  0
   -4.4213   -1.1566   -0.7151 H   0  0  0  0  0  0  0  0  0  0  0  0
    4.3969    1.5802   -0.1822 H   0  0  0  0  0  0  0  0  0  0  0  0
    1.5490   -4.2995    0.7645 H   0  0  0  0  0  0  0  0  0  0  0  0
    1.5002   -3.3495   -3.4197 H   0  0  0  0  0  0  0  0  0  0  0  0
    1.9467   -4.9559   -1.5830 H   0  0  0  0  0  0  0  0  0  0  0  0
   -6.1304    0.5580   -0.3725 H   0  0  0  0  0  0  0  0  0  0  0  0
   -5.7020    2.2229   -0.0419 H   0  0  0  0  0  0  0  0  0  0  0  0
    4.6266    3.8168    0.2628 H   0  0  0  0  0  0  0  0  0  0  0  0
   -0.8777   -0.8863    3.5903 H   0  0  0  0  0  0  0  0  0  0  0  0
   -0.3239   -2.5233    4.0943 H   0  0  0  0  0  0  0  0  0  0  0  0
   -2.0042   -2.2622    3.5727 H   0  0  0  0  0  0  0  0  0  0  0  0
  1 10  1  0  0  0  0
  1 11  1  0  0  0  0
  2 25  1  0  0  0  0
  2 26  1  0  0  0  0
  3 25  2  0  0  0  0
  4 18  1  0  0  0  0
  4 37  1  0  0  0  0
  4 38  1  0  0  0  0
  5 21  2  0  0  0  0
  5 39  1  0  0  0  0
  6  7  1  0  0  0  0
  6  8  2  0  0  0  0
  6  9  1  0  0  0  0
  7 10  2  0  0  0  0
  7 12  1  0  0  0  0
  8 11  1  0  0  0  0
  8 13  1  0  0  0  0
  9 14  1  0  0  0  0
  9 17  2  0  0  0  0
 10 15  1  0  0  0  0
 11 16  2  0  0  0  0
 12 19  2  0  0  0  0
 12 27  1  0  0  0  0
 13 20  2  0  0  0  0
 13 28  1  0  0  0  0
 14 22  2  0  0  0  0
 14 25  1  0  0  0  0
 15 18  2  0  0  0  0
 15 29  1  0  0  0  0
 16 21  1  0  0  0  0
 16 30  1  0  0  0  0
 17 23  1  0  0  0  0
 17 31  1  0  0  0  0
 18 19  1  0  0  0  0
 19 32  1  0  0  0  0
 20 21  1  0  0  0  0
 20 33  1  0  0  0  0
 22 24  1  0  0  0  0
 22 34  1  0  0  0  0
 23 24  2  0  0  0  0
 23 35  1  0  0  0  0
 24 36  1  0  0  0  0
 26 40  1  0  0  0  0
 26 41  1  0  0  0  0
 26 42  1  0  0  0  0
M  END
> <PUBCHEM_COMPOUND_CID>
65218

> <PUBCHEM_CONFORMER_RMSD>
0.6

> <PUBCHEM_CONFORMER_DIVERSEORDER>
1
2
3
4

> <PUBCHEM_MMFF94_PARTIAL_CHARGES>
38
1 -0.16
10 0.08
11 0.08
12 -0.15
13 -0.15
14 0.09
15 -0.15
16 -0.14
17 -0.15
18 0.1
19 -0.15
2 -0.43
20 -0.14
21 0.42
22 -0.15
23 -0.15
24 -0.15
25 0.63
26 0.28
27 0.15
28 0.15
29 0.15
3 -0.57
30 0.15
31 0.15
32 0.15
33 0.15
34 0.15
35 0.15
36 0.15
37 0.4
38 0.4
39 0.4
4 -0.9
5 -0.85
6 -0.06
7 0.03
9 0.03

> <PUBCHEM_EFFECTIVE_ROTOR_COUNT>
3

> <PUBCHEM_PHARMACOPHORE_FEATURES>
10
1 1 acceptor
1 3 acceptor
1 4 cation
1 4 donor
1 5 acceptor
1 5 donor
6 1 6 7 8 10 11 rings
6 7 10 12 15 18 19 rings
6 8 11 13 16 20 21 rings
6 9 14 17 22 23 24 rings

> <PUBCHEM_HEAVY_ATOM_COUNT>
26

> <PUBCHEM_ATOM_DEF_STEREO_COUNT>
0

> <PUBCHEM_ATOM_UDEF_STEREO_COUNT>
0

> <PUBCHEM_BOND_DEF_STEREO_COUNT>
0

> <PUBCHEM_BOND_UDEF_STEREO_COUNT>
0

> <PUBCHEM_ISOTOPIC_ATOM_COUNT>
0

> <PUBCHEM_COMPONENT_COUNT>
1

> <PUBCHEM_CACTVS_TAUTO_COUNT>
1

> <PUBCHEM_CONFORMER_ID>
0000FEC200000001

> <PUBCHEM_MMFF94_ENERGY>
103.3846

> <PUBCHEM_FEATURE_SELFOVERLAP>
50.803

> <PUBCHEM_SHAPE_FINGERPRINT>
10411042 1 17837214770925709791
107951 10 17968946425841538724
11421498 54 16987180394789166963
12156800 1 16979518026333770019
12553582 1 17546169602130811293
12788726 201 17474368653631605570
13009979 54 17200522806070068123
13140716 1 18341611563738747541
138480 1 18125724487012222325
14022347 108 17330268373524579229
14787075 74 17899144819237166750
14817 1 9969194886032783146
14844126 61 17547273967177549384
15664445 248 18051407362757461659
16087824 20 17476917326513592687
19591789 44 18269834392283442484
20567600 347 18335982072999567461
20600515 1 17403151726295790961
20691752 17 17535771610365498180
20905425 154 18122619449359490932
21421861 104 18264489486410721721
21524375 3 18264760150411201965
23352939 185 17415010049680641614
23419403 2 17761261808684820730
23559900 14 18126561220294048773
23598288 3 17468204783046594460
23728640 28 17981032339326899080
298252 57 18128530668398389092
3091708 16 9186498308205320165
3383291 50 18340483465662970818
35225 105 17394697993706285339
376196 1 18335969965545386293
394222 165 18336251440152565993
6138700 20 18341337683091800766
621550 5 16839939002374886214
7364860 26 18342176605340677293
9841814 1 18118682111305637545
9981440 41 18268989963095415873

> <PUBCHEM_SHAPE_MULTIPOLES>
507.5
5.57
5.4
2.04
8.75
5.29
-1.76
-0.78
1.56
-6.14
-0.17
-0.99
-2.68
0.86

> <PUBCHEM_SHAPE_SELFOVERLAP>
1136.519

> <PUBCHEM_SHAPE_VOLUME>
267.3

> <PUBCHEM_COORDINATE_TYPE>
2
5
10

$$$$