44451671
  -OEChem-03242010103D

 64 68  0     1  0  0  0  0  0999 V2000
    9.0695    2.6561   -0.1009 O   0  0  0  0  0  0  0  0  0  0  0  0
   10.2448    0.1408   -0.0092 O   0  0  0  0  0  0  0  0  0  0  0  0
   -4.5684    0.8054   -1.6480 O   0  0  0  0  0  0  0  0  0  0  0  0
    3.8716   -0.5727   -0.1655 N   0  0  2  0  0  0  0  0  0  0  0  0
   -3.9690   -0.7243    0.0343 N   0  0  0  0  0  0  0  0  0  0  0  0
   -6.6745   -1.1423    0.2671 N   0  0  0  0  0  0  0  0  0  0  0  0
    4.3925   -1.6941    0.6261 C   0  0  0  0  0  0  0  0  0  0  0  0
    4.5973    0.6659    0.1674 C   0  0  0  0  0  0  0  0  0  0  0  0
    5.8396   -1.9906    0.2196 C   0  0  0  0  0  0  0  0  0  0  0  0
    6.0998    0.5180    0.0906 C   0  0  0  0  0  0  0  0  0  0  0  0
    6.6963   -0.7528    0.1610 C   0  0  0  0  0  0  0  0  0  0  0  0
    2.4375   -0.3991    0.0619 C   0  0  0  0  0  0  0  0  0  0  0  0
    1.6276   -1.4105   -0.7498 C   0  0  0  0  0  0  0  0  0  0  0  0
    6.9110    1.6581    0.0139 C   0  0  0  0  0  0  0  0  0  0  0  0
    8.0918   -0.8669    0.1161 C   0  0  0  0  0  0  0  0  0  0  0  0
    8.3000    1.5348   -0.0205 C   0  0  0  0  0  0  0  0  0  0  0  0
    8.8895    0.2736    0.0283 C   0  0  0  0  0  0  0  0  0  0  0  0
    0.1454   -1.2279   -0.5413 C   0  0  0  0  0  0  0  0  0  0  0  0
   -0.5052   -1.9172    0.4821 C   0  0  0  0  0  0  0  0  0  0  0  0
   -0.5754   -0.3707   -1.3728 C   0  0  0  0  0  0  0  0  0  0  0  0
   -1.8765   -1.7494    0.6741 C   0  0  0  0  0  0  0  0  0  0  0  0
   -1.9468   -0.2029   -1.1809 C   0  0  0  0  0  0  0  0  0  0  0  0
   -2.5973   -0.8923   -0.1576 C   0  0  0  0  0  0  0  0  0  0  0  0
    9.4718    3.2553    1.1294 C   0  0  0  0  0  0  0  0  0  0  0  0
   10.7676   -1.1852    0.0453 C   0  0  0  0  0  0  0  0  0  0  0  0
   -4.8492    0.0864   -0.6950 C   0  0  0  0  0  0  0  0  0  0  0  0
   -6.2710    0.0312   -0.2647 C   0  0  0  0  0  0  0  0  0  0  0  0
   -8.4229    1.0478   -0.0047 C   0  0  0  0  0  0  0  0  0  0  0  0
   -7.0897    1.1391   -0.4211 C   0  0  0  0  0  0  0  0  0  0  0  0
   -8.8816   -0.1622    0.5559 C   0  0  0  0  0  0  0  0  0  0  0  0
   -7.9656   -1.2107    0.6632 C   0  0  0  0  0  0  0  0  0  0  0  0
   -9.3156    2.1250   -0.1289 C   0  0  0  0  0  0  0  0  0  0  0  0
  -10.2161   -0.2741    0.9799 C   0  0  0  0  0  0  0  0  0  0  0  0
  -10.6398    2.0025    0.2958 C   0  0  0  0  0  0  0  0  0  0  0  0
  -11.0890    0.8057    0.8489 C   0  0  0  0  0  0  0  0  0  0  0  0
    4.3436   -1.4668    1.7000 H   0  0  0  0  0  0  0  0  0  0  0  0
    3.8143   -2.6104    0.4679 H   0  0  0  0  0  0  0  0  0  0  0  0
    4.3427    1.0045    1.1808 H   0  0  0  0  0  0  0  0  0  0  0  0
    4.2931    1.4482   -0.5396 H   0  0  0  0  0  0  0  0  0  0  0  0
    6.2664   -2.7046    0.9340 H   0  0  0  0  0  0  0  0  0  0  0  0
    5.8518   -2.4607   -0.7721 H   0  0  0  0  0  0  0  0  0  0  0  0
    2.1309    0.6037   -0.2671 H   0  0  0  0  0  0  0  0  0  0  0  0
    2.1899   -0.4557    1.1306 H   0  0  0  0  0  0  0  0  0  0  0  0
    1.8586   -1.3094   -1.8187 H   0  0  0  0  0  0  0  0  0  0  0  0
    1.8884   -2.4427   -0.4884 H   0  0  0  0  0  0  0  0  0  0  0  0
    6.4566    2.6458   -0.0195 H   0  0  0  0  0  0  0  0  0  0  0  0
    8.4926   -1.8747    0.1523 H   0  0  0  0  0  0  0  0  0  0  0  0
    0.0461   -2.5863    1.1374 H   0  0  0  0  0  0  0  0  0  0  0  0
   -0.0780    0.1725   -2.1721 H   0  0  0  0  0  0  0  0  0  0  0  0
   -2.3705   -2.2925    1.4757 H   0  0  0  0  0  0  0  0  0  0  0  0
   -2.4336    0.4776   -1.8650 H   0  0  0  0  0  0  0  0  0  0  0  0
   10.0841    4.1315    0.8996 H   0  0  0  0  0  0  0  0  0  0  0  0
   10.0700    2.5557    1.7215 H   0  0  0  0  0  0  0  0  0  0  0  0
    8.5969    3.5799    1.7017 H   0  0  0  0  0  0  0  0  0  0  0  0
   11.8588   -1.1024    0.0063 H   0  0  0  0  0  0  0  0  0  0  0  0
   10.4632   -1.7755   -0.8257 H   0  0  0  0  0  0  0  0  0  0  0  0
   10.5209   -1.6781    0.9919 H   0  0  0  0  0  0  0  0  0  0  0  0
   -4.3721   -1.2631    0.7980 H   0  0  0  0  0  0  0  0  0  0  0  0
   -6.7087    2.0610   -0.8519 H   0  0  0  0  0  0  0  0  0  0  0  0
   -8.2535   -2.1694    1.0857 H   0  0  0  0  0  0  0  0  0  0  0  0
   -8.9868    3.0692   -0.5580 H   0  0  0  0  0  0  0  0  0  0  0  0
  -10.5832   -1.2013    1.4140 H   0  0  0  0  0  0  0  0  0  0  0  0
  -11.3208    2.8426    0.1945 H   0  0  0  0  0  0  0  0  0  0  0  0
  -12.1197    0.7131    1.1785 H   0  0  0  0  0  0  0  0  0  0  0  0
  1 16  1  0  0  0  0
  1 24  1  0  0  0  0
  2 17  1  0  0  0  0
  2 25  1  0  0  0  0
  3 26  2  0  0  0  0
  4  7  1  0  0  0  0
  4  8  1  0  0  0  0
  4 12  1  0  0  0  0
  5 23  1  0  0  0  0
  5 26  1  0  0  0  0
  5 58  1  0  0  0  0
  6 27  1  0  0  0  0
  6 31  2  0  0  0  0
  7  9  1  0  0  0  0
  7 36  1  0  0  0  0
  7 37  1  0  0  0  0
  8 10  1  0  0  0  0
  8 38  1  0  0  0  0
  8 39  1  0  0  0  0
  9 11  1  0  0  0  0
  9 40  1  0  0  0  0
  9 41  1  0  0  0  0
 10 11  1  0  0  0  0
 10 14  2  0  0  0  0
 11 15  2  0  0  0  0
 12 13  1  0  0  0  0
 12 42  1  0  0  0  0
 12 43  1  0  0  0  0
 13 18  1  0  0  0  0
 13 44  1  0  0  0  0
 13 45  1  0  0  0  0
 14 16  1  0  0  0  0
 14 46  1  0  0  0  0
 15 17  1  0  0  0  0
 15 47  1  0  0  0  0
 16 17  2  0  0  0  0
 18 19  2  0  0  0  0
 18 20  1  0  0  0  0
 19 21  1  0  0  0  0
 19 48  1  0  0  0  0
 20 22  2  0  0  0  0
 20 49  1  0  0  0  0
 21 23  2  0  0  0  0
 21 50  1  0  0  0  0
 22 23  1  0  0  0  0
 22 51  1  0  0  0  0
 24 52  1  0  0  0  0
 24 53  1  0  0  0  0
 24 54  1  0  0  0  0
 25 55  1  0  0  0  0
 25 56  1  0  0  0  0
 25 57  1  0  0  0  0
 26 27  1  0  0  0  0
 27 29  2  0  0  0  0
 28 29  1  0  0  0  0
 28 30  1  0  0  0  0
 28 32  2  0  0  0  0
 29 59  1  0  0  0  0
 30 31  1  0  0  0  0
 30 33  2  0  0  0  0
 31 60  1  0  0  0  0
 32 34  1  0  0  0  0
 32 61  1  0  0  0  0
 33 35  1  0  0  0  0
 33 62  1  0  0  0  0
 34 35  2  0  0  0  0
 34 63  1  0  0  0  0
 35 64  1  0  0  0  0
M  END
> <PUBCHEM_COMPOUND_CID>
44451671

> <PUBCHEM_CONFORMER_RMSD>
1

> <PUBCHEM_CONFORMER_DIVERSEORDER>
5
89
75
86
92
96
81
59
31
88
43
78
82
25
7
98
93
15
60
33
79
2
90
58
77
74
91
70
19
21
47
46
83
38
1
11
97
94
22
57
6
51
48
84
72
23
63
36
80
68
10
8
37
62
69
85
4
40
30
95
65
3
54
76
53
56
12
44
64
26
32
34
45
39
71
87
73
13
55
20
41
67
35
29
52
61
27
9
66
49
50
16
24
14
42
17
28
18

> <PUBCHEM_MMFF94_PARTIAL_CHARGES>
46
1 -0.36
10 -0.14
11 -0.14
12 0.27
13 0.14
14 -0.15
15 -0.15
16 0.08
17 0.08
18 -0.14
19 -0.15
2 -0.36
20 -0.15
21 -0.15
22 -0.15
23 0.12
24 0.28
25 0.28
26 0.54
27 0.4
29 -0.15
3 -0.57
31 0.16
32 -0.15
33 -0.15
34 -0.15
35 -0.15
4 -0.81
46 0.15
47 0.15
48 0.15
49 0.15
5 -0.55
50 0.15
51 0.15
58 0.37
59 0.15
6 -0.62
60 0.15
61 0.15
62 0.15
63 0.15
64 0.15
7 0.27
8 0.41
9 0.14

> <PUBCHEM_EFFECTIVE_ROTOR_COUNT>
8.8

> <PUBCHEM_PHARMACOPHORE_FEATURES>
11
1 1 acceptor
1 2 acceptor
1 3 acceptor
1 4 cation
1 5 donor
1 6 acceptor
6 10 11 14 15 16 17 rings
6 18 19 20 21 22 23 rings
6 28 30 32 33 34 35 rings
6 4 7 8 9 10 11 rings
6 6 27 28 29 30 31 rings

> <PUBCHEM_HEAVY_ATOM_COUNT>
35

> <PUBCHEM_ATOM_DEF_STEREO_COUNT>
0

> <PUBCHEM_ATOM_UDEF_STEREO_COUNT>
0

> <PUBCHEM_BOND_DEF_STEREO_COUNT>
0

> <PUBCHEM_BOND_UDEF_STEREO_COUNT>
0

> <PUBCHEM_ISOTOPIC_ATOM_COUNT>
0

> <PUBCHEM_COMPONENT_COUNT>
1

> <PUBCHEM_CACTVS_TAUTO_COUNT>
2

> <PUBCHEM_CONFORMER_ID>
02A6475700000005

> <PUBCHEM_MMFF94_ENERGY>
121.9595

> <PUBCHEM_FEATURE_SELFOVERLAP>
55.877

> <PUBCHEM_SHAPE_FINGERPRINT>
10 15 18040714770558490515
10162869 55 9079113367598110630
106641 1 17530966882566005391
11181472 205 17703517597140770946
11211813 74 17988921211309172600
11408170 108 11530753787170561169
11409948 35 17916873401275765174
11463208 3 11026060367343581264
11534866 41 15430031051065139760
11607047 141 18188763956733582154
11966995 178 18335423444590776494
12013929 2 18410858742048055194
12013929 94 8214141862939082949
12089408 11 18202558497016129878
12498461 61 14346089638000364425
12522641 33 17775287140502148431
12539745 222 12179833997207932079
12559415 86 18129674006205029284
12664476 115 18342735217324713145
13553643 46 18340771443363170905
13740195 50 18186804699536218251
14117953 113 14405185084166044568
14118638 360 15697729112271844571
14251764 46 18408604755853189231
14359421 15 17096921371502235034
14428016 248 17988928864444677297
14617042 71 18411139168979068052
15061470 23 18344144786973302632
15198563 99 14045471028923928955
15219723 13 17241038813913187922
15247644 1 12685094773947059081
155225 1 18201720639713147513
15706992 2 18412270540700054413
15773216 30 14045476491837525485
15840311 113 18408044031563129412
15890870 6 18273496771068572319
1754911 235 13398629438310118139
19315958 150 18342179934262955575
20156587 128 15338850719835230942
2026 5 8502385428941369689
20501277 279 18040998423594972363
21102433 48 12396301474292198713
21362267 2 18342161294057684224
21362267 313 18266737987225261210
21792961 116 9655573025148824999
21895431 317 12829483749340254017
232437 2 17967813838781581010
23576562 1 14835536160682508073
24771293 8 18260546749450874999
249057 3 15482383223205393515
3092352 35 17917709106404037975
335352 9 13183016311809879271
3711267 37 18201449089894863433
4017518 198 10447923971982711261
44280117 145 18267585887844628103
45270241 37 18341617002027155430
5028188 123 18060696222205419847
54039377 194 8574709097057249019
59521099 67 9295278448762784122
59521660 218 16415206612041663423
59682541 35 17822014203424037075
6081469 158 12247681573864809874
6201320 82 14979132255227693345
67123 10 18408604764627753195
9663363 56 16272205285501246882
9937071 3 11602817999642120864
9953998 17 18040718070216857007
9962374 69 14490480824035937847

> <PUBCHEM_SHAPE_MULTIPOLES>
687.73
48.66
2.33
0.96
14.29
1.35
0.13
25.6
-10.6
-3.73
-0.48
0.83
0.04
1.12

> <PUBCHEM_SHAPE_SELFOVERLAP>
1504.434

> <PUBCHEM_SHAPE_VOLUME>
372.6

> <PUBCHEM_COORDINATE_TYPE>
2
5
10

$$$$