2979948
  -OEChem-03242010103D

 62 65  0     1  0  0  0  0  0999 V2000
   -0.8420   -5.2361    0.6218 O   0  0  0  0  0  0  0  0  0  0  0  0
    1.3324   -3.4849    0.3696 O   0  0  0  0  0  0  0  0  0  0  0  0
    6.5373   -0.1265   -0.8928 O   0  0  0  0  0  0  0  0  0  0  0  0
   -2.6873   -2.1768   -0.3716 N   0  0  0  0  0  0  0  0  0  0  0  0
   -4.1553    0.2608   -0.1214 N   0  0  0  0  0  0  0  0  0  0  0  0
   -2.7263   -1.4607    0.9093 C   0  0  0  0  0  0  0  0  0  0  0  0
   -3.9608   -2.0011   -1.0808 C   0  0  0  0  0  0  0  0  0  0  0  0
   -2.9586    0.0371    0.6955 C   0  0  0  0  0  0  0  0  0  0  0  0
   -4.2333   -0.5216   -1.3615 C   0  0  0  0  0  0  0  0  0  0  0  0
   -2.4112   -3.5968   -0.1574 C   0  0  0  0  0  0  0  0  0  0  0  0
   -1.0416   -3.8261    0.4861 C   0  0  2  0  0  0  0  0  0  0  0  0
   -4.7969    1.5039   -0.0869 C   0  0  0  0  0  0  0  0  0  0  0  0
    0.1135   -3.2476   -0.3280 C   0  0  0  0  0  0  0  0  0  0  0  0
   -6.1405    1.6367    0.3213 C   0  0  0  0  0  0  0  0  0  0  0  0
   -4.1043    2.6721   -0.4655 C   0  0  0  0  0  0  0  0  0  0  0  0
   -6.7639    2.8842    0.3493 C   0  0  0  0  0  0  0  0  0  0  0  0
   -6.9212    0.4310    0.7329 C   0  0  0  0  0  0  0  0  0  0  0  0
   -4.7277    3.9196   -0.4373 C   0  0  0  0  0  0  0  0  0  0  0  0
   -6.0574    4.0256   -0.0300 C   0  0  0  0  0  0  0  0  0  0  0  0
    2.3388   -2.5769    0.1764 C   0  0  0  0  0  0  0  0  0  0  0  0
    2.4336   -1.9009   -1.0353 C   0  0  0  0  0  0  0  0  0  0  0  0
    3.2562   -2.3378    1.1940 C   0  0  0  0  0  0  0  0  0  0  0  0
    4.3815   -0.7303   -0.2155 C   0  0  0  0  0  0  0  0  0  0  0  0
    3.4582   -0.9749   -1.2318 C   0  0  0  0  0  0  0  0  0  0  0  0
    4.2806   -1.4118    0.9975 C   0  0  0  0  0  0  0  0  0  0  0  0
    5.4496    0.2354   -0.4201 C   0  0  0  0  0  0  0  0  0  0  0  0
    5.2969    1.6823   -0.0799 C   0  0  0  0  0  0  0  0  0  0  0  0
    4.1009    2.1112    0.4464 C   0  0  0  0  0  0  0  0  0  0  0  0
    6.3587    2.5267   -0.3065 C   0  0  0  0  0  0  0  0  0  0  0  0
    3.9583    3.4620    0.7642 C   0  0  0  0  0  0  0  0  0  0  0  0
    6.2161    3.8773    0.0114 C   0  0  0  0  0  0  0  0  0  0  0  0
    5.0159    4.3449    0.5468 C   0  0  0  0  0  0  0  0  0  0  0  0
   -3.5145   -1.8662    1.5580 H   0  0  0  0  0  0  0  0  0  0  0  0
   -1.7802   -1.5395    1.4524 H   0  0  0  0  0  0  0  0  0  0  0  0
   -4.7910   -2.4225   -0.4977 H   0  0  0  0  0  0  0  0  0  0  0  0
   -3.9335   -2.5312   -2.0405 H   0  0  0  0  0  0  0  0  0  0  0  0
   -3.0732    0.5185    1.6746 H   0  0  0  0  0  0  0  0  0  0  0  0
   -2.0857    0.4861    0.2047 H   0  0  0  0  0  0  0  0  0  0  0  0
   -3.5037   -0.1327   -2.0834 H   0  0  0  0  0  0  0  0  0  0  0  0
   -5.2262   -0.4279   -1.8178 H   0  0  0  0  0  0  0  0  0  0  0  0
   -2.4303   -4.1288   -1.1183 H   0  0  0  0  0  0  0  0  0  0  0  0
   -3.1877   -4.0716    0.4581 H   0  0  0  0  0  0  0  0  0  0  0  0
   -1.0076   -3.4431    1.5108 H   0  0  0  0  0  0  0  0  0  0  0  0
    0.1732   -3.7478   -1.3020 H   0  0  0  0  0  0  0  0  0  0  0  0
   -0.0578   -2.1741   -0.4697 H   0  0  0  0  0  0  0  0  0  0  0  0
   -3.0682    2.6122   -0.7918 H   0  0  0  0  0  0  0  0  0  0  0  0
    0.0372   -5.3697    1.0154 H   0  0  0  0  0  0  0  0  0  0  0  0
   -7.7996    2.9846    0.6627 H   0  0  0  0  0  0  0  0  0  0  0  0
   -6.3772   -0.1446    1.4894 H   0  0  0  0  0  0  0  0  0  0  0  0
   -7.1213   -0.2083   -0.1327 H   0  0  0  0  0  0  0  0  0  0  0  0
   -7.8863    0.7038    1.1738 H   0  0  0  0  0  0  0  0  0  0  0  0
   -4.1783    4.8082   -0.7338 H   0  0  0  0  0  0  0  0  0  0  0  0
   -6.5429    4.9969   -0.0088 H   0  0  0  0  0  0  0  0  0  0  0  0
    1.7542   -2.0829   -1.8623 H   0  0  0  0  0  0  0  0  0  0  0  0
    3.1807   -2.8660    2.1403 H   0  0  0  0  0  0  0  0  0  0  0  0
    3.5316   -0.4542   -2.1832 H   0  0  0  0  0  0  0  0  0  0  0  0
    4.9945   -1.2292    1.7965 H   0  0  0  0  0  0  0  0  0  0  0  0
    3.2567    1.4556    0.6295 H   0  0  0  0  0  0  0  0  0  0  0  0
    7.3019    2.1863   -0.7219 H   0  0  0  0  0  0  0  0  0  0  0  0
    3.0240    3.8266    1.1810 H   0  0  0  0  0  0  0  0  0  0  0  0
    7.0393    4.5653   -0.1579 H   0  0  0  0  0  0  0  0  0  0  0  0
    4.9049    5.3965    0.7943 H   0  0  0  0  0  0  0  0  0  0  0  0
  1 11  1  0  0  0  0
  1 47  1  0  0  0  0
  2 13  1  0  0  0  0
  2 20  1  0  0  0  0
  3 26  2  0  0  0  0
  4  6  1  0  0  0  0
  4  7  1  0  0  0  0
  4 10  1  0  0  0  0
  5  8  1  0  0  0  0
  5  9  1  0  0  0  0
  5 12  1  0  0  0  0
  6  8  1  0  0  0  0
  6 33  1  0  0  0  0
  6 34  1  0  0  0  0
  7  9  1  0  0  0  0
  7 35  1  0  0  0  0
  7 36  1  0  0  0  0
  8 37  1  0  0  0  0
  8 38  1  0  0  0  0
  9 39  1  0  0  0  0
  9 40  1  0  0  0  0
 10 11  1  0  0  0  0
 10 41  1  0  0  0  0
 10 42  1  0  0  0  0
 11 13  1  0  0  0  0
 11 43  1  0  0  0  0
 12 14  1  0  0  0  0
 12 15  2  0  0  0  0
 13 44  1  0  0  0  0
 13 45  1  0  0  0  0
 14 16  2  0  0  0  0
 14 17  1  0  0  0  0
 15 18  1  0  0  0  0
 15 46  1  0  0  0  0
 16 19  1  0  0  0  0
 16 48  1  0  0  0  0
 17 49  1  0  0  0  0
 17 50  1  0  0  0  0
 17 51  1  0  0  0  0
 18 19  2  0  0  0  0
 18 52  1  0  0  0  0
 19 53  1  0  0  0  0
 20 21  2  0  0  0  0
 20 22  1  0  0  0  0
 21 24  1  0  0  0  0
 21 54  1  0  0  0  0
 22 25  2  0  0  0  0
 22 55  1  0  0  0  0
 23 24  2  0  0  0  0
 23 25  1  0  0  0  0
 23 26  1  0  0  0  0
 24 56  1  0  0  0  0
 25 57  1  0  0  0  0
 26 27  1  0  0  0  0
 27 28  2  0  0  0  0
 27 29  1  0  0  0  0
 28 30  1  0  0  0  0
 28 58  1  0  0  0  0
 29 31  2  0  0  0  0
 29 59  1  0  0  0  0
 30 32  2  0  0  0  0
 30 60  1  0  0  0  0
 31 32  1  0  0  0  0
 31 61  1  0  0  0  0
 32 62  1  0  0  0  0
M  END
> <PUBCHEM_COMPOUND_CID>
2979948

> <PUBCHEM_CONFORMER_RMSD>
1

> <PUBCHEM_CONFORMER_DIVERSEORDER>
1
287
246
187
161
247
46
132
304
193
149
271
200
211
261
47
92
294
182
64
217
58
215
248
213
326
117
57
166
238
11
282
189
234
274
137
310
16
196
32
165
10
168
159
295
302
296
135
5
164
300
95
303
61
87
251
97
245
249
214
270
102
183
133
321
279
17
98
75
322
7
186
276
121
195
50
172
42
229
20
131
297
93
311
227
286
239
130
240
178
129
264
62
277
244
225
257
323
309
184
298
36
66
101
127
216
120
60
202
222
221
179
268
167
171
275
143
90
158
104
56
177
313
71
80
59
119
141
99
3
19
48
231
139
319
67
136
306
254
146
107
85
253
230
207
198
218
255
226
40
54
224
241
29
81
223
273
138
109
283
114
308
94
293
191
324
267
174
260
6
86
144
112
175
272
118
162
242
69
33
307
115
203
140
103
105
70
31
292
259
68
266
91
206
4
265
9
72
18
180
27
305
232
235
106
269
281
188
301
125
256
145
124
88
41
190
209
147
228
142
154
153
236
39
110
289
237
84
291
43
49
25
21
77
111
263
204
160
299
185
148
192
51
26
45
73
205
74
314
219
126
157
233
79
82
156
163
113
38
35
55
44
78
181
128
8
123
280
108
65
262
210
312
53
317
176
122
24
151
243
315
325
13
285
252
83
116
76
63
96
208
320
152
250
150
22
34
12
23
258
278
170
220
37
290
284
199
155
197
201
89
318
100
28
212
288
52
14
15
173
316
2
169
30
134
194

> <PUBCHEM_MMFF94_PARTIAL_CHARGES>
46
1 -0.68
10 0.27
11 0.28
12 0.1
13 0.28
14 -0.14
15 -0.15
16 -0.15
17 0.14
18 -0.15
19 -0.15
2 -0.36
20 0.08
21 -0.15
22 -0.15
23 0.09
24 -0.15
25 -0.15
26 0.4
27 0.09
28 -0.15
29 -0.15
3 -0.57
30 -0.15
31 -0.15
32 -0.15
4 -0.81
46 0.15
47 0.4
48 0.15
5 -0.84
52 0.15
53 0.15
54 0.15
55 0.15
56 0.15
57 0.15
58 0.15
59 0.15
6 0.27
60 0.15
61 0.15
62 0.15
7 0.27
8 0.37
9 0.37

> <PUBCHEM_EFFECTIVE_ROTOR_COUNT>
9.2

> <PUBCHEM_PHARMACOPHORE_FEATURES>
10
1 1 acceptor
1 1 donor
1 2 acceptor
1 3 acceptor
1 4 cation
1 5 cation
6 12 14 15 16 18 19 rings
6 20 21 22 23 24 25 rings
6 27 28 29 30 31 32 rings
6 4 5 6 7 8 9 rings

> <PUBCHEM_HEAVY_ATOM_COUNT>
32

> <PUBCHEM_ATOM_DEF_STEREO_COUNT>
0

> <PUBCHEM_ATOM_UDEF_STEREO_COUNT>
1

> <PUBCHEM_BOND_DEF_STEREO_COUNT>
0

> <PUBCHEM_BOND_UDEF_STEREO_COUNT>
0

> <PUBCHEM_ISOTOPIC_ATOM_COUNT>
0

> <PUBCHEM_COMPONENT_COUNT>
1

> <PUBCHEM_CACTVS_TAUTO_COUNT>
1

> <PUBCHEM_CONFORMER_ID>
002D786C00000001

> <PUBCHEM_MMFF94_ENERGY>
118.2158

> <PUBCHEM_FEATURE_SELFOVERLAP>
50.753

> <PUBCHEM_SHAPE_FINGERPRINT>
10675989 125 18195530289852851321
10864689 126 18338808827664698084
10917259 69 18409731773480268036
11399510 152 17677349275981486475
11479125 193 18409171030058505761
11505856 67 18269544087598549359
11621639 148 18048329035792045675
11761917 142 18124303072640662680
11828042 163 18341057312111796916
13944108 23 18197218036143779784
14223995 32 18412819210293710568
14251764 75 18409729551647215347
14429114 114 18411412938552022673
14790565 3 18338515236342580459
15289351 153 18267009739561408888
15320467 1 18194400228144193672
15400415 2 18410011030946085589
15569901 51 15888549024080821021
15979999 66 17191512204970510887
16067689 134 17479751415896278369
16708801 149 18340752823840594688
19053607 189 18342727525385958888
19302320 297 18193835946692460234
19438510 23 18114183038125735978
20691028 202 18409449201952105220
22122407 14 18408886230650740602
23516275 100 17332517381177765425
23569914 2 17200199794860901360
24204213 92 17485378773043424734
2838139 119 18412262874252587590
3552219 110 17773326841042086259
4144715 1 18118973722928114282
42767 28 18272942626373354936
437795 171 18261383395636909237
5109719 28 18339372851386135297
550186 72 17618222153634884934
5951187 136 18199755751883023958
6036956 94 18047193235025080341
6176135 31 18337382760477259336
9849439 229 18335424530405268671

> <PUBCHEM_SHAPE_MULTIPOLES>
630.97
20.3
7.36
1.04
3.31
0.06
0.07
25.4
0.29
-0.13
-0.96
-0.1
-0.35
0.21

> <PUBCHEM_SHAPE_SELFOVERLAP>
1352.963

> <PUBCHEM_SHAPE_VOLUME>
349

> <PUBCHEM_COORDINATE_TYPE>
2
5
10

$$$$