2856734
  -OEChem-03242010103D

 56 58  0     1  0  0  0  0  0999 V2000
    3.2631    0.2212   -3.1763 O   0  0  0  0  0  0  0  0  0  0  0  0
    2.1641    1.5543   -0.9978 O   0  0  0  0  0  0  0  0  0  0  0  0
   -0.3720    1.6779   -1.8281 O   0  0  0  0  0  0  0  0  0  0  0  0
    2.5263   -1.8650   -0.2002 N   0  0  0  0  0  0  0  0  0  0  0  0
    1.2269   -2.3705    0.2644 C   0  0  0  0  0  0  0  0  0  0  0  0
    3.5547   -2.9135   -0.1450 C   0  0  0  0  0  0  0  0  0  0  0  0
    1.3177   -2.8878    1.7008 C   0  0  0  0  0  0  0  0  0  0  0  0
    3.7217   -3.4484    1.2783 C   0  0  0  0  0  0  0  0  0  0  0  0
    2.3977   -3.9547    1.8390 C   0  0  0  0  0  0  0  0  0  0  0  0
    2.4120   -1.3315   -1.5573 C   0  0  0  0  0  0  0  0  0  0  0  0
    3.4742   -0.2689   -1.8491 C   0  0  2  0  0  0  0  0  0  0  0  0
    3.4299    0.9120   -0.8819 C   0  0  0  0  0  0  0  0  0  0  0  0
    1.6740    2.1563    0.1303 C   0  0  0  0  0  0  0  0  0  0  0  0
    0.3001    2.2538    0.3505 C   0  0  0  0  0  0  0  0  0  0  0  0
   -2.0175    1.1965   -0.1339 C   0  0  0  0  0  0  0  0  0  0  0  0
   -0.6513    1.7185   -0.6134 C   0  0  0  0  0  0  0  0  0  0  0  0
   -2.5906    0.0913   -1.0241 C   0  0  0  0  0  0  0  0  0  0  0  0
    2.5690    2.6746    1.0665 C   0  0  0  0  0  0  0  0  0  0  0  0
   -0.1789    2.8695    1.5068 C   0  0  0  0  0  0  0  0  0  0  0  0
   -3.9307   -0.3857   -0.5267 C   0  0  0  0  0  0  0  0  0  0  0  0
    2.0898    3.2901    2.2229 C   0  0  0  0  0  0  0  0  0  0  0  0
    0.7161    3.3876    2.4430 C   0  0  0  0  0  0  0  0  0  0  0  0
   -4.0017   -1.4394    0.3848 C   0  0  0  0  0  0  0  0  0  0  0  0
   -5.1004    0.2266   -0.9772 C   0  0  0  0  0  0  0  0  0  0  0  0
   -5.2421   -1.8809    0.8453 C   0  0  0  0  0  0  0  0  0  0  0  0
   -6.3407   -0.2150   -0.5165 C   0  0  0  0  0  0  0  0  0  0  0  0
   -6.4115   -1.2688    0.3948 C   0  0  0  0  0  0  0  0  0  0  0  0
    0.4838   -1.5636    0.2454 H   0  0  0  0  0  0  0  0  0  0  0  0
    0.8604   -3.1688   -0.3944 H   0  0  0  0  0  0  0  0  0  0  0  0
    4.5246   -2.5176   -0.4659 H   0  0  0  0  0  0  0  0  0  0  0  0
    3.3039   -3.7442   -0.8181 H   0  0  0  0  0  0  0  0  0  0  0  0
    0.3496   -3.2994    2.0078 H   0  0  0  0  0  0  0  0  0  0  0  0
    1.5396   -2.0530    2.3780 H   0  0  0  0  0  0  0  0  0  0  0  0
    4.1129   -2.6533    1.9257 H   0  0  0  0  0  0  0  0  0  0  0  0
    4.4596   -4.2586    1.2854 H   0  0  0  0  0  0  0  0  0  0  0  0
    2.0917   -4.8577    1.2967 H   0  0  0  0  0  0  0  0  0  0  0  0
    2.5172   -4.2352    2.8912 H   0  0  0  0  0  0  0  0  0  0  0  0
    2.4486   -2.1257   -2.3157 H   0  0  0  0  0  0  0  0  0  0  0  0
    1.4294   -0.8612   -1.7046 H   0  0  0  0  0  0  0  0  0  0  0  0
    4.4736   -0.7170   -1.8307 H   0  0  0  0  0  0  0  0  0  0  0  0
    4.2023    1.6396   -1.1585 H   0  0  0  0  0  0  0  0  0  0  0  0
    3.6295    0.5437    0.1318 H   0  0  0  0  0  0  0  0  0  0  0  0
    3.9597    0.8738   -3.3620 H   0  0  0  0  0  0  0  0  0  0  0  0
   -1.9092    0.8049    0.8849 H   0  0  0  0  0  0  0  0  0  0  0  0
   -2.7034    2.0515   -0.0998 H   0  0  0  0  0  0  0  0  0  0  0  0
   -2.6908    0.4481   -2.0573 H   0  0  0  0  0  0  0  0  0  0  0  0
   -1.8889   -0.7515   -1.0744 H   0  0  0  0  0  0  0  0  0  0  0  0
    3.6450    2.6523    0.9217 H   0  0  0  0  0  0  0  0  0  0  0  0
   -1.2426    2.9760    1.7002 H   0  0  0  0  0  0  0  0  0  0  0  0
    2.7859    3.7014    2.9482 H   0  0  0  0  0  0  0  0  0  0  0  0
    0.3434    3.8719    3.3409 H   0  0  0  0  0  0  0  0  0  0  0  0
   -3.0972   -1.9230    0.7443 H   0  0  0  0  0  0  0  0  0  0  0  0
   -5.0579    1.0496   -1.6856 H   0  0  0  0  0  0  0  0  0  0  0  0
   -5.2972   -2.7010    1.5553 H   0  0  0  0  0  0  0  0  0  0  0  0
   -7.2515    0.2619   -0.8667 H   0  0  0  0  0  0  0  0  0  0  0  0
   -7.3772   -1.6123    0.7538 H   0  0  0  0  0  0  0  0  0  0  0  0
  1 11  1  0  0  0  0
  1 43  1  0  0  0  0
  2 12  1  0  0  0  0
  2 13  1  0  0  0  0
  3 16  2  0  0  0  0
  4  5  1  0  0  0  0
  4  6  1  0  0  0  0
  4 10  1  0  0  0  0
  5  7  1  0  0  0  0
  5 28  1  0  0  0  0
  5 29  1  0  0  0  0
  6  8  1  0  0  0  0
  6 30  1  0  0  0  0
  6 31  1  0  0  0  0
  7  9  1  0  0  0  0
  7 32  1  0  0  0  0
  7 33  1  0  0  0  0
  8  9  1  0  0  0  0
  8 34  1  0  0  0  0
  8 35  1  0  0  0  0
  9 36  1  0  0  0  0
  9 37  1  0  0  0  0
 10 11  1  0  0  0  0
 10 38  1  0  0  0  0
 10 39  1  0  0  0  0
 11 12  1  0  0  0  0
 11 40  1  0  0  0  0
 12 41  1  0  0  0  0
 12 42  1  0  0  0  0
 13 14  1  0  0  0  0
 13 18  2  0  0  0  0
 14 16  1  0  0  0  0
 14 19  2  0  0  0  0
 15 16  1  0  0  0  0
 15 17  1  0  0  0  0
 15 44  1  0  0  0  0
 15 45  1  0  0  0  0
 17 20  1  0  0  0  0
 17 46  1  0  0  0  0
 17 47  1  0  0  0  0
 18 21  1  0  0  0  0
 18 48  1  0  0  0  0
 19 22  1  0  0  0  0
 19 49  1  0  0  0  0
 20 23  2  0  0  0  0
 20 24  1  0  0  0  0
 21 22  2  0  0  0  0
 21 50  1  0  0  0  0
 22 51  1  0  0  0  0
 23 25  1  0  0  0  0
 23 52  1  0  0  0  0
 24 26  2  0  0  0  0
 24 53  1  0  0  0  0
 25 27  2  0  0  0  0
 25 54  1  0  0  0  0
 26 27  1  0  0  0  0
 26 55  1  0  0  0  0
 27 56  1  0  0  0  0
M  END
> <PUBCHEM_COMPOUND_CID>
2856734

> <PUBCHEM_CONFORMER_RMSD>
1.2

> <PUBCHEM_CONFORMER_DIVERSEORDER>
1
81
100
46
91
36
37
58
105
129
127
115
26
119
59
8
55
86
106
70
69
76
38
43
114
18
48
101
13
126
35
117
125
73
41
29
132
111
113
68
6
97
130
19
123
118
44
61
79
107
116
24
42
74
25
94
33
45
71
98
92
102
30
10
78
3
72
80
90
75
84
27
57
67
60
89
121
9
93
40
5
87
95
128
108
47
62
20
83
120
56
134
50
54
16
124
49
2
34
131
22
31
112
52
11
122
88
28
104
39
99
12
14
63
7
82
64
66
109
77
17
110
23
96
85
21
32
4
65
51
15
133
103
53

> <PUBCHEM_MMFF94_PARTIAL_CHARGES>
34
1 -0.68
10 0.27
11 0.28
12 0.28
13 0.08
14 0.09
15 0.06
16 0.42
17 0.14
18 -0.15
19 -0.15
2 -0.36
20 -0.14
21 -0.15
22 -0.15
23 -0.15
24 -0.15
25 -0.15
26 -0.15
27 -0.15
3 -0.57
4 -0.81
43 0.4
48 0.15
49 0.15
5 0.27
50 0.15
51 0.15
52 0.15
53 0.15
54 0.15
55 0.15
56 0.15
6 0.27

> <PUBCHEM_EFFECTIVE_ROTOR_COUNT>
10.2

> <PUBCHEM_PHARMACOPHORE_FEATURES>
8
1 1 acceptor
1 1 donor
1 2 acceptor
1 3 acceptor
1 4 cation
6 13 14 18 19 21 22 rings
6 20 23 24 25 26 27 rings
6 4 5 6 7 8 9 rings

> <PUBCHEM_HEAVY_ATOM_COUNT>
27

> <PUBCHEM_ATOM_DEF_STEREO_COUNT>
0

> <PUBCHEM_ATOM_UDEF_STEREO_COUNT>
1

> <PUBCHEM_BOND_DEF_STEREO_COUNT>
0

> <PUBCHEM_BOND_UDEF_STEREO_COUNT>
0

> <PUBCHEM_ISOTOPIC_ATOM_COUNT>
0

> <PUBCHEM_COMPONENT_COUNT>
1

> <PUBCHEM_CACTVS_TAUTO_COUNT>
2

> <PUBCHEM_CONFORMER_ID>
002B971E00000001

> <PUBCHEM_MMFF94_ENERGY>
63.7212

> <PUBCHEM_FEATURE_SELFOVERLAP>
40.608

> <PUBCHEM_SHAPE_FINGERPRINT>
114674 6 18268147732925058129
12156800 1 14711662796489482090
12788726 201 18198916811662759399
13009979 54 17977664204462298186
13533116 47 18272937167785964801
13583140 156 17700694236549779005
13617811 41 17531526594683753015
14068700 675 18044090151524582722
15324115 91 18040438801708546766
15664445 248 17895477037130360845
15968369 26 17823405166937190435
17138139 8 18267608856785479478
19026451 147 18341892965716760714
19319366 153 18334580178579375398
20775530 9 18117830014999802063
21421861 104 18131345332303618841
23559900 14 18040989627781681175
238918 7 17690562304733382290
345986 75 18059296470276620945
4058900 60 18125444360666545769
508706 21 17827646065011610363
5265222 85 17829615311358171284
6376802 137 18195521494324462066
6669772 16 18267294525498942960
86090 222 18047202022839333163
9841814 1 18131350808418251341

> <PUBCHEM_SHAPE_MULTIPOLES>
533.06
11.13
5.17
2.27
23.16
0.72
-0.33
7.79
-1.56
-6.64
4.5
-2.61
-0.64
0.26

> <PUBCHEM_SHAPE_SELFOVERLAP>
1114.582

> <PUBCHEM_SHAPE_VOLUME>
301

> <PUBCHEM_COORDINATE_TYPE>
2
5
10

$$$$