4
 OpenBabel03292022243D

100104  0  0  1  0  0  0  0  0999 V2000
    5.5193    9.4033    3.6683 C   0  0  0  0  0  0  0  0  0  0  0  0
    5.1736    8.0790    3.2746 O   0  0  0  0  0  0  0  0  0  0  0  0
    5.8726    7.5676    2.2187 C   0  0  0  0  0  0  0  0  0  0  0  0
    6.0420    6.1837    2.2207 C   0  0  0  0  0  0  0  0  0  0  0  0
    6.7272    5.5491    1.1801 C   0  0  0  0  0  0  0  0  0  0  0  0
    7.2340    6.2879    0.0979 C   0  0  0  0  0  0  0  0  0  0  0  0
    8.0264    5.5859   -1.0071 C   0  0  0  0  0  0  0  0  0  0  0  0
    7.3239    5.6943   -2.3722 C   0  0  0  0  0  0  0  0  0  0  0  0
    6.6042    4.8007   -2.8171 O   0  0  0  0  0  0  0  0  0  0  0  0
    7.5645    6.8610   -3.0317 O   0  0  0  0  0  0  0  0  0  0  0  0
    7.0265    6.9758   -4.3771 C   0  0  1  0  0  0  0  0  0  0  0  0
    5.6158    7.5810   -4.3709 C   0  0  0  0  0  0  0  0  0  0  0  0
    5.1122    7.9850   -5.7756 C   0  0  0  0  0  0  0  0  0  0  0  0
    6.1004    8.9392   -6.5036 C   0  0  2  0  0  0  0  0  0  0  0  0
    5.7108    9.3767   -7.8806 N   0  0  0  0  0  0  0  0  0  0  0  0
    6.6879   10.3565   -8.4033 C   0  0  0  0  0  0  0  0  0  0  0  0
    4.3132    9.8740   -8.0354 C   0  0  1  0  0  0  0  0  0  0  0  0
    4.0094   11.1885   -7.2794 C   0  0  0  0  0  0  0  0  0  0  0  0
    2.6097   11.7286   -7.5696 C   0  0  0  0  0  0  0  0  0  0  0  0
    2.4000   11.9214   -9.0728 C   0  0  2  0  0  0  0  0  0  0  0  0
    1.0861   12.4412   -9.3327 O   0  0  0  0  0  0  0  0  0  0  0  0
    0.9705   13.7924   -9.2250 C   0  0  0  0  0  0  0  0  0  0  0  0
    1.8515   14.5768   -8.9142 O   0  0  0  0  0  0  0  0  0  0  0  0
   -0.3614   14.2588   -9.5279 C   0  0  0  0  0  0  0  0  0  0  0  0
   -1.4561   14.6816   -9.7713 C   0  0  0  0  0  0  0  0  0  0  0  0
   -2.7567   15.2183  -10.0360 C   0  0  0  0  0  0  0  0  0  0  0  0
   -2.8843   16.4938  -10.5767 C   0  0  0  0  0  0  0  0  0  0  0  0
   -4.1544   17.0246  -10.8254 C   0  0  0  0  0  0  0  0  0  0  0  0
   -4.3446   18.2805  -11.3619 O   0  0  0  0  0  0  0  0  0  0  0  0
   -3.2644   18.8003  -12.1312 C   0  0  0  0  0  0  0  0  0  0  0  0
   -5.3128   16.2808  -10.4954 C   0  0  0  0  0  0  0  0  0  0  0  0
   -6.5062   16.9349  -10.7076 O   0  0  0  0  0  0  0  0  0  0  0  0
   -7.6308   16.1484  -11.0804 C   0  0  0  0  0  0  0  0  0  0  0  0
   -5.1739   14.9950   -9.9281 C   0  0  0  0  0  0  0  0  0  0  0  0
   -6.3097   14.3209   -9.5602 O   0  0  0  0  0  0  0  0  0  0  0  0
   -6.1660   13.0369   -8.9662 C   0  0  0  0  0  0  0  0  0  0  0  0
   -3.8881   14.4731   -9.7241 C   0  0  0  0  0  0  0  0  0  0  0  0
    2.5377   10.5685   -9.7712 C   0  0  0  0  0  0  0  0  0  0  0  0
    3.9271    9.9770   -9.5388 C   0  0  0  0  0  0  0  0  0  0  0  0
    7.4597    8.1932   -6.5494 C   0  0  0  0  0  0  0  0  0  0  0  0
    7.9792    7.8739   -5.1545 C   0  0  0  0  0  0  0  0  0  0  0  0
    9.5478    5.8354   -1.0041 C   0  0  0  0  0  0  0  0  0  0  0  0
   10.1990    6.5157    0.0409 C   0  0  0  0  0  0  0  0  0  0  0  0
   11.5938    6.6306    0.0785 C   0  0  0  0  0  0  0  0  0  0  0  0
   12.3827    6.0348   -0.9013 C   0  0  0  0  0  0  0  0  0  0  0  0
   13.7301    6.2136   -0.7520 O   0  0  0  0  0  0  0  0  0  0  0  0
   14.5577    5.1840   -1.2797 C   0  0  0  0  0  0  0  0  0  0  0  0
   11.7628    5.3494   -1.9429 C   0  0  0  0  0  0  0  0  0  0  0  0
   10.3612    5.2483   -1.9910 C   0  0  0  0  0  0  0  0  0  0  0  0
    7.0356    7.6770    0.0919 C   0  0  0  0  0  0  0  0  0  0  0  0
    6.3653    8.3113    1.1448 C   0  0  0  0  0  0  0  0  0  0  0  0
    4.8711    9.6829    4.5046 H   0  0  0  0  0  0  0  0  0  0  0  0
    5.3452   10.1334    2.8729 H   0  0  0  0  0  0  0  0  0  0  0  0
    6.5565    9.4422    4.0168 H   0  0  0  0  0  0  0  0  0  0  0  0
    5.6503    5.5948    3.0483 H   0  0  0  0  0  0  0  0  0  0  0  0
    6.8669    4.4704    1.2313 H   0  0  0  0  0  0  0  0  0  0  0  0
    7.9674    4.5096   -0.7792 H   0  0  0  0  0  0  0  0  0  0  0  0
    7.0088    5.9921   -4.8645 H   0  0  0  0  0  0  0  0  0  0  0  0
    5.5999    8.4604   -3.7148 H   0  0  0  0  0  0  0  0  0  0  0  0
    4.9153    6.8662   -3.9222 H   0  0  0  0  0  0  0  0  0  0  0  0
    4.1309    8.4554   -5.6501 H   0  0  0  0  0  0  0  0  0  0  0  0
    4.9582    7.0789   -6.3769 H   0  0  0  0  0  0  0  0  0  0  0  0
    6.2087    9.8341   -5.8759 H   0  0  0  0  0  0  0  0  0  0  0  0
    6.4763   10.6547   -9.4318 H   0  0  0  0  0  0  0  0  0  0  0  0
    7.6969    9.9469   -8.4735 H   0  0  0  0  0  0  0  0  0  0  0  0
    6.7412   11.2604   -7.7877 H   0  0  0  0  0  0  0  0  0  0  0  0
    3.6349    9.1080   -7.6401 H   0  0  0  0  0  0  0  0  0  0  0  0
    4.7234   11.9718   -7.5566 H   0  0  0  0  0  0  0  0  0  0  0  0
    4.1110   11.0342   -6.1990 H   0  0  0  0  0  0  0  0  0  0  0  0
    2.4630   12.6767   -7.0402 H   0  0  0  0  0  0  0  0  0  0  0  0
    1.8486   11.0455   -7.1725 H   0  0  0  0  0  0  0  0  0  0  0  0
    3.1577   12.6023   -9.4841 H   0  0  0  0  0  0  0  0  0  0  0  0
   -1.9845   17.0658  -10.7763 H   0  0  0  0  0  0  0  0  0  0  0  0
   -3.6092   19.7105  -12.6309 H   0  0  0  0  0  0  0  0  0  0  0  0
   -2.9519   18.0908  -12.9059 H   0  0  0  0  0  0  0  0  0  0  0  0
   -2.4202   19.0796  -11.4918 H   0  0  0  0  0  0  0  0  0  0  0  0
   -8.4002   16.8297  -11.4592 H   0  0  0  0  0  0  0  0  0  0  0  0
   -8.0729   15.6429  -10.2179 H   0  0  0  0  0  0  0  0  0  0  0  0
   -7.3876   15.4435  -11.8824 H   0  0  0  0  0  0  0  0  0  0  0  0
   -7.1640   12.6780   -8.6994 H   0  0  0  0  0  0  0  0  0  0  0  0
   -5.5767   13.0864   -8.0445 H   0  0  0  0  0  0  0  0  0  0  0  0
   -5.7335   12.3258   -9.6777 H   0  0  0  0  0  0  0  0  0  0  0  0
   -3.7399   13.4881   -9.2922 H   0  0  0  0  0  0  0  0  0  0  0  0
    2.3619   10.6886  -10.8478 H   0  0  0  0  0  0  0  0  0  0  0  0
    1.7644    9.8758   -9.4176 H   0  0  0  0  0  0  0  0  0  0  0  0
    4.6245   10.6132  -10.0916 H   0  0  0  0  0  0  0  0  0  0  0  0
    3.9809    8.9828  -10.0000 H   0  0  0  0  0  0  0  0  0  0  0  0
    8.2427    8.7793   -7.0324 H   0  0  0  0  0  0  0  0  0  0  0  0
    7.3530    7.2681   -7.1329 H   0  0  0  0  0  0  0  0  0  0  0  0
    8.1471    8.8085   -4.6039 H   0  0  0  0  0  0  0  0  0  0  0  0
    8.9613    7.3917   -5.2288 H   0  0  0  0  0  0  0  0  0  0  0  0
    9.6439    6.9543    0.8677 H   0  0  0  0  0  0  0  0  0  0  0  0
   12.0684    7.1655    0.8981 H   0  0  0  0  0  0  0  0  0  0  0  0
   15.5812    5.3739   -0.9397 H   0  0  0  0  0  0  0  0  0  0  0  0
   14.5655    5.2005   -2.3737 H   0  0  0  0  0  0  0  0  0  0  0  0
   14.2589    4.2002   -0.9012 H   0  0  0  0  0  0  0  0  0  0  0  0
   12.3422    4.8870   -2.7355 H   0  0  0  0  0  0  0  0  0  0  0  0
    9.9166    4.6783   -2.8052 H   0  0  0  0  0  0  0  0  0  0  0  0
    7.4222    8.2848   -0.7233 H   0  0  0  0  0  0  0  0  0  0  0  0
    6.2295    9.3851    1.0888 H   0  0  0  0  0  0  0  0  0  0  0  0
  1  2  1  0  0  0  0
  1 52  1  0  0  0  0
  1 53  1  0  0  0  0
  1 54  1  0  0  0  0
  2  3  1  0  0  0  0
  3  4  1  0  0  0  0
  3 51  2  0  0  0  0
  4  5  2  0  0  0  0
  4 55  1  0  0  0  0
  5  6  1  0  0  0  0
  5 56  1  0  0  0  0
  6  7  1  0  0  0  0
  6 50  2  0  0  0  0
  7  8  1  0  0  0  0
  7 42  1  0  0  0  0
  7 57  1  0  0  0  0
  8  9  2  0  0  0  0
  8 10  1  0  0  0  0
 11 12  1  0  0  0  0
 11 41  1  0  0  0  0
 11 10  1  0  0  0  0
 11 58  1  6  0  0  0
 12 13  1  0  0  0  0
 12 59  1  0  0  0  0
 12 60  1  0  0  0  0
 13 14  1  0  0  0  0
 13 61  1  0  0  0  0
 13 62  1  0  0  0  0
 14 40  1  0  0  0  0
 14 15  1  0  0  0  0
 14 63  1  1  0  0  0
 15 16  1  0  0  0  0
 16 64  1  0  0  0  0
 16 65  1  0  0  0  0
 16 66  1  0  0  0  0
 17 18  1  0  0  0  0
 17 39  1  0  0  0  0
 17 15  1  0  0  0  0
 17 67  1  1  0  0  0
 18 19  1  0  0  0  0
 18 68  1  0  0  0  0
 18 69  1  0  0  0  0
 19 20  1  0  0  0  0
 19 70  1  0  0  0  0
 19 71  1  0  0  0  0
 20 38  1  0  0  0  0
 20 21  1  0  0  0  0
 20 72  1  6  0  0  0
 21 22  1  0  0  0  0
 22 23  2  0  0  0  0
 22 24  1  0  0  0  0
 24 25  3  0  0  0  0
 25 26  1  0  0  0  0
 26 27  1  0  0  0  0
 26 37  2  0  0  0  0
 27 28  2  0  0  0  0
 27 73  1  0  0  0  0
 28 29  1  0  0  0  0
 28 31  1  0  0  0  0
 29 30  1  0  0  0  0
 30 74  1  0  0  0  0
 30 75  1  0  0  0  0
 30 76  1  0  0  0  0
 31 32  1  0  0  0  0
 31 34  2  0  0  0  0
 32 33  1  0  0  0  0
 33 77  1  0  0  0  0
 33 78  1  0  0  0  0
 33 79  1  0  0  0  0
 34 35  1  0  0  0  0
 34 37  1  0  0  0  0
 35 36  1  0  0  0  0
 36 80  1  0  0  0  0
 36 81  1  0  0  0  0
 36 82  1  0  0  0  0
 37 83  1  0  0  0  0
 38 39  1  0  0  0  0
 38 84  1  0  0  0  0
 38 85  1  0  0  0  0
 39 86  1  0  0  0  0
 39 87  1  0  0  0  0
 40 41  1  0  0  0  0
 40 88  1  0  0  0  0
 40 89  1  0  0  0  0
 41 90  1  0  0  0  0
 41 91  1  0  0  0  0
 42 43  1  0  0  0  0
 42 49  2  0  0  0  0
 43 44  2  0  0  0  0
 43 92  1  0  0  0  0
 44 45  1  0  0  0  0
 44 93  1  0  0  0  0
 45 46  1  0  0  0  0
 45 48  2  0  0  0  0
 46 47  1  0  0  0  0
 47 94  1  0  0  0  0
 47 95  1  0  0  0  0
 47 96  1  0  0  0  0
 48 49  1  0  0  0  0
 48 97  1  0  0  0  0
 49 98  1  0  0  0  0
 50 51  1  0  0  0  0
 50 99  1  0  0  0  0
 51100  1  0  0  0  0
M  END
>  <Energy>
161.349

$$$$