5
 OpenBabel03292022243D

100104  0  0  1  0  0  0  0  0999 V2000
    4.6216    1.1802   -1.2632 C   0  0  0  0  0  0  0  0  0  0  0  0
    4.4113   -0.0287   -0.5450 O   0  0  0  0  0  0  0  0  0  0  0  0
    4.1735    0.0940    0.7959 C   0  0  0  0  0  0  0  0  0  0  0  0
    3.4479   -0.9513    1.3647 C   0  0  0  0  0  0  0  0  0  0  0  0
    3.1982   -0.9816    2.7412 C   0  0  0  0  0  0  0  0  0  0  0  0
    3.7175    0.0123    3.5899 C   0  0  0  0  0  0  0  0  0  0  0  0
    3.5417   -0.1175    5.1065 C   0  0  0  0  0  0  0  0  0  0  0  0
    4.7618    0.3615    5.9231 C   0  0  0  0  0  0  0  0  0  0  0  0
    5.6878   -0.3885    6.2248 O   0  0  0  0  0  0  0  0  0  0  0  0
    4.7466    1.6991    6.2310 O   0  0  0  0  0  0  0  0  0  0  0  0
    5.8738    2.2019    6.9934 C   0  0  1  0  0  0  0  0  0  0  0  0
    7.0224    2.5915    6.0608 C   0  0  0  0  0  0  0  0  0  0  0  0
    8.2142    3.1608    6.8377 C   0  0  0  0  0  0  0  0  0  0  0  0
    7.8696    4.3375    7.7981 C   0  0  2  0  0  0  0  0  0  0  0  0
    9.0780    4.6853    8.5879 N   0  0  0  0  0  0  0  0  0  0  0  0
    9.4626    3.7033    9.5991 C   0  0  0  0  0  0  0  0  0  0  0  0
    9.3240    6.1020    8.9528 C   0  0  1  0  0  0  0  0  0  0  0  0
    8.6789    6.6073   10.2657 C   0  0  0  0  0  0  0  0  0  0  0  0
    9.1689    8.0116   10.6721 C   0  0  0  0  0  0  0  0  0  0  0  0
   10.6950    8.0832   10.7903 C   0  0  1  0  0  0  0  0  0  0  0  0
   11.1661    7.1611   11.8016 O   0  0  0  0  0  0  0  0  0  0  0  0
   11.0873    7.6047   13.0872 C   0  0  0  0  0  0  0  0  0  0  0  0
   10.7108    8.7142   13.4432 O   0  0  0  0  0  0  0  0  0  0  0  0
   11.4700    6.6164   14.0658 C   0  0  0  0  0  0  0  0  0  0  0  0
   11.7632    5.8426   14.9480 C   0  0  0  0  0  0  0  0  0  0  0  0
   12.1060    4.9565   16.0190 C   0  0  0  0  0  0  0  0  0  0  0  0
   13.3817    4.4049   16.0818 C   0  0  0  0  0  0  0  0  0  0  0  0
   13.7264    3.5288   17.1188 C   0  0  0  0  0  0  0  0  0  0  0  0
   14.9754    2.9562   17.2203 O   0  0  0  0  0  0  0  0  0  0  0  0
   16.0388    3.6680   16.5946 C   0  0  0  0  0  0  0  0  0  0  0  0
   12.7703    3.1751   18.1003 C   0  0  0  0  0  0  0  0  0  0  0  0
   13.1916    2.2255   19.0056 O   0  0  0  0  0  0  0  0  0  0  0  0
   12.6686    2.2759   20.3272 C   0  0  0  0  0  0  0  0  0  0  0  0
   11.4760    3.7352   18.0368 C   0  0  0  0  0  0  0  0  0  0  0  0
   10.5584    3.3400   18.9737 O   0  0  0  0  0  0  0  0  0  0  0  0
    9.2502    3.8932   18.9219 C   0  0  0  0  0  0  0  0  0  0  0  0
   11.1671    4.6372   17.0037 C   0  0  0  0  0  0  0  0  0  0  0  0
   11.3035    7.7147    9.4358 C   0  0  0  0  0  0  0  0  0  0  0  0
   10.8626    6.3299    8.9662 C   0  0  0  0  0  0  0  0  0  0  0  0
    6.6072    4.0033    8.6259 C   0  0  0  0  0  0  0  0  0  0  0  0
    5.4495    3.4517    7.7756 C   0  0  0  0  0  0  0  0  0  0  0  0
    2.1942    0.3793    5.6289 C   0  0  0  0  0  0  0  0  0  0  0  0
    1.2891   -0.5109    6.2367 C   0  0  0  0  0  0  0  0  0  0  0  0
    0.0815   -0.0473    6.7728 C   0  0  0  0  0  0  0  0  0  0  0  0
   -0.2334    1.3099    6.7298 C   0  0  0  0  0  0  0  0  0  0  0  0
   -1.4194    1.6660    7.3115 O   0  0  0  0  0  0  0  0  0  0  0  0
   -1.4405    2.9723    7.8819 C   0  0  0  0  0  0  0  0  0  0  0  0
    0.6296    2.1911    6.0817 C   0  0  0  0  0  0  0  0  0  0  0  0
    1.8277    1.7275    5.5286 C   0  0  0  0  0  0  0  0  0  0  0  0
    4.4098    1.0804    2.9993 C   0  0  0  0  0  0  0  0  0  0  0  0
    4.6363    1.1215    1.6147 C   0  0  0  0  0  0  0  0  0  0  0  0
    4.7204    0.9221   -2.3227 H   0  0  0  0  0  0  0  0  0  0  0  0
    5.5471    1.6803   -0.9626 H   0  0  0  0  0  0  0  0  0  0  0  0
    3.7591    1.8461   -1.1593 H   0  0  0  0  0  0  0  0  0  0  0  0
    3.0796   -1.7538    0.7294 H   0  0  0  0  0  0  0  0  0  0  0  0
    2.6152   -1.8078    3.1437 H   0  0  0  0  0  0  0  0  0  0  0  0
    3.5478   -1.2042    5.2980 H   0  0  0  0  0  0  0  0  0  0  0  0
    6.1990    1.4384    7.7127 H   0  0  0  0  0  0  0  0  0  0  0  0
    6.6715    3.3189    5.3186 H   0  0  0  0  0  0  0  0  0  0  0  0
    7.3483    1.7162    5.4858 H   0  0  0  0  0  0  0  0  0  0  0  0
    8.9821    3.4869    6.1248 H   0  0  0  0  0  0  0  0  0  0  0  0
    8.6461    2.3224    7.3938 H   0  0  0  0  0  0  0  0  0  0  0  0
    7.6211    5.1887    7.1488 H   0  0  0  0  0  0  0  0  0  0  0  0
   10.4223    3.9300   10.0685 H   0  0  0  0  0  0  0  0  0  0  0  0
    9.6134    2.7165    9.1539 H   0  0  0  0  0  0  0  0  0  0  0  0
    8.7284    3.6148   10.4032 H   0  0  0  0  0  0  0  0  0  0  0  0
    8.9371    6.7394    8.1451 H   0  0  0  0  0  0  0  0  0  0  0  0
    8.8894    5.9206   11.0929 H   0  0  0  0  0  0  0  0  0  0  0  0
    7.5891    6.6453   10.1554 H   0  0  0  0  0  0  0  0  0  0  0  0
    8.7083    8.2864   11.6280 H   0  0  0  0  0  0  0  0  0  0  0  0
    8.8315    8.7498    9.9330 H   0  0  0  0  0  0  0  0  0  0  0  0
   11.0215    9.1008   11.0419 H   0  0  0  0  0  0  0  0  0  0  0  0
   14.0898    4.6558   15.2998 H   0  0  0  0  0  0  0  0  0  0  0  0
   16.9844    3.2124   16.9028 H   0  0  0  0  0  0  0  0  0  0  0  0
   16.0535    4.7171   16.9114 H   0  0  0  0  0  0  0  0  0  0  0  0
   15.9789    3.5892   15.5040 H   0  0  0  0  0  0  0  0  0  0  0  0
   13.2599    1.5888   20.9427 H   0  0  0  0  0  0  0  0  0  0  0  0
   11.6405    1.9084   20.3764 H   0  0  0  0  0  0  0  0  0  0  0  0
   12.7637    3.2762   20.7617 H   0  0  0  0  0  0  0  0  0  0  0  0
    8.6518    3.4071   19.6988 H   0  0  0  0  0  0  0  0  0  0  0  0
    8.7655    3.6913   17.9618 H   0  0  0  0  0  0  0  0  0  0  0  0
    9.2756    4.9655   19.1396 H   0  0  0  0  0  0  0  0  0  0  0  0
   10.1846    5.0947   16.9311 H   0  0  0  0  0  0  0  0  0  0  0  0
   12.3982    7.7215    9.5081 H   0  0  0  0  0  0  0  0  0  0  0  0
   11.0229    8.4635    8.6852 H   0  0  0  0  0  0  0  0  0  0  0  0
   11.3619    5.6152    9.6262 H   0  0  0  0  0  0  0  0  0  0  0  0
   11.2629    6.1491    7.9609 H   0  0  0  0  0  0  0  0  0  0  0  0
    6.2663    4.8972    9.1598 H   0  0  0  0  0  0  0  0  0  0  0  0
    6.8365    3.2473    9.3848 H   0  0  0  0  0  0  0  0  0  0  0  0
    5.0888    4.2222    7.0820 H   0  0  0  0  0  0  0  0  0  0  0  0
    4.5972    3.2094    8.4218 H   0  0  0  0  0  0  0  0  0  0  0  0
    1.5115   -1.5747    6.3081 H   0  0  0  0  0  0  0  0  0  0  0  0
   -0.6073   -0.7457    7.2433 H   0  0  0  0  0  0  0  0  0  0  0  0
   -2.3677    3.0734    8.4544 H   0  0  0  0  0  0  0  0  0  0  0  0
   -1.4471    3.7461    7.1079 H   0  0  0  0  0  0  0  0  0  0  0  0
   -0.6025    3.1166    8.5739 H   0  0  0  0  0  0  0  0  0  0  0  0
    0.3926    3.2443    5.9776 H   0  0  0  0  0  0  0  0  0  0  0  0
    2.4811    2.4378    5.0282 H   0  0  0  0  0  0  0  0  0  0  0  0
    4.8102    1.8876    3.6074 H   0  0  0  0  0  0  0  0  0  0  0  0
    5.2116    1.9498    1.2151 H   0  0  0  0  0  0  0  0  0  0  0  0
  1  2  1  0  0  0  0
  1 52  1  0  0  0  0
  1 53  1  0  0  0  0
  1 54  1  0  0  0  0
  2  3  1  0  0  0  0
  3  4  1  0  0  0  0
  3 51  2  0  0  0  0
  4  5  2  0  0  0  0
  4 55  1  0  0  0  0
  5  6  1  0  0  0  0
  5 56  1  0  0  0  0
  6  7  1  0  0  0  0
  6 50  2  0  0  0  0
  7  8  1  0  0  0  0
  7 42  1  0  0  0  0
  7 57  1  0  0  0  0
  8  9  2  0  0  0  0
  8 10  1  0  0  0  0
 11 12  1  0  0  0  0
 11 41  1  0  0  0  0
 11 10  1  0  0  0  0
 11 58  1  1  0  0  0
 12 13  1  0  0  0  0
 12 59  1  0  0  0  0
 12 60  1  0  0  0  0
 13 14  1  0  0  0  0
 13 61  1  0  0  0  0
 13 62  1  0  0  0  0
 14 40  1  0  0  0  0
 14 15  1  0  0  0  0
 14 63  1  6  0  0  0
 15 16  1  0  0  0  0
 16 64  1  0  0  0  0
 16 65  1  0  0  0  0
 16 66  1  0  0  0  0
 17 18  1  0  0  0  0
 17 39  1  0  0  0  0
 17 15  1  0  0  0  0
 17 67  1  6  0  0  0
 18 19  1  0  0  0  0
 18 68  1  0  0  0  0
 18 69  1  0  0  0  0
 19 20  1  0  0  0  0
 19 70  1  0  0  0  0
 19 71  1  0  0  0  0
 20 21  1  0  0  0  0
 20 38  1  0  0  0  0
 20 72  1  1  0  0  0
 21 22  1  0  0  0  0
 22 23  2  0  0  0  0
 22 24  1  0  0  0  0
 24 25  3  0  0  0  0
 25 26  1  0  0  0  0
 26 27  1  0  0  0  0
 26 37  2  0  0  0  0
 27 28  2  0  0  0  0
 27 73  1  0  0  0  0
 28 29  1  0  0  0  0
 28 31  1  0  0  0  0
 29 30  1  0  0  0  0
 30 74  1  0  0  0  0
 30 75  1  0  0  0  0
 30 76  1  0  0  0  0
 31 32  1  0  0  0  0
 31 34  2  0  0  0  0
 32 33  1  0  0  0  0
 33 77  1  0  0  0  0
 33 78  1  0  0  0  0
 33 79  1  0  0  0  0
 34 35  1  0  0  0  0
 34 37  1  0  0  0  0
 35 36  1  0  0  0  0
 36 80  1  0  0  0  0
 36 81  1  0  0  0  0
 36 82  1  0  0  0  0
 37 83  1  0  0  0  0
 38 39  1  0  0  0  0
 38 84  1  0  0  0  0
 38 85  1  0  0  0  0
 39 86  1  0  0  0  0
 39 87  1  0  0  0  0
 40 41  1  0  0  0  0
 40 88  1  0  0  0  0
 40 89  1  0  0  0  0
 41 90  1  0  0  0  0
 41 91  1  0  0  0  0
 42 43  1  0  0  0  0
 42 49  2  0  0  0  0
 43 44  2  0  0  0  0
 43 92  1  0  0  0  0
 44 45  1  0  0  0  0
 44 93  1  0  0  0  0
 45 46  1  0  0  0  0
 45 48  2  0  0  0  0
 46 47  1  0  0  0  0
 47 94  1  0  0  0  0
 47 95  1  0  0  0  0
 47 96  1  0  0  0  0
 48 49  1  0  0  0  0
 48 97  1  0  0  0  0
 49 98  1  0  0  0  0
 50 51  1  0  0  0  0
 50 99  1  0  0  0  0
 51100  1  0  0  0  0
M  END
>  <Energy>
163.642

$$$$