71716785
  -OEChem-03242010103D

 92 97  0     1  0  0  0  0  0999 V2000
   -5.9816    0.3474   -0.6435 O   0  0  0  0  0  0  0  0  0  0  0  0
    4.3197    0.9344   -0.1438 O   0  0  0  0  0  0  0  0  0  0  0  0
   -6.9461   -0.2342    1.3734 O   0  0  0  0  0  0  0  0  0  0  0  0
    5.6366    2.5953    0.7755 O   0  0  0  0  0  0  0  0  0  0  0  0
    9.7785   -3.5003   -0.6640 O   0  0  0  0  0  0  0  0  0  0  0  0
   12.6469    0.3223   -0.3551 O   0  0  0  0  0  0  0  0  0  0  0  0
   12.3171   -2.3979   -0.7605 O   0  0  0  0  0  0  0  0  0  0  0  0
   -0.9977    2.5572    0.7936 N   0  0  2  0  0  0  0  0  0  0  0  0
   -2.1140    1.8919    0.1226 C   0  0  0  0  0  0  0  0  0  0  0  0
    0.2416    1.8084    0.5884 C   0  0  0  0  0  0  0  0  0  0  0  0
   -3.2419    2.8908   -0.1651 C   0  0  0  0  0  0  0  0  0  0  0  0
   -2.6137    0.7246    0.9819 C   0  0  0  0  0  0  0  0  0  0  0  0
    0.8155    2.1255   -0.7977 C   0  0  0  0  0  0  0  0  0  0  0  0
    1.2546    2.1302    1.6944 C   0  0  0  0  0  0  0  0  0  0  0  0
   -4.4447    2.2009   -0.8035 C   0  0  0  0  0  0  0  0  0  0  0  0
   -3.8174    0.0394    0.3398 C   0  0  0  0  0  0  0  0  0  0  0  0
   -4.9404    1.0313    0.0454 C   0  0  0  0  0  0  0  0  0  0  0  0
    2.5802    1.4104    1.4594 C   0  0  0  0  0  0  0  0  0  0  0  0
    2.1414    1.4046   -1.0266 C   0  0  0  0  0  0  0  0  0  0  0  0
    3.1510    1.7168    0.0756 C   0  0  0  0  0  0  0  0  0  0  0  0
   -1.2748    2.7054    2.2218 C   0  0  0  0  0  0  0  0  0  0  0  0
   -6.9207   -0.2418    0.1501 C   0  0  0  0  0  0  0  0  0  0  0  0
   -7.9420   -0.9166   -0.7025 C   0  0  0  0  0  0  0  0  0  0  0  0
    5.4949    1.4997    0.2559 C   0  0  0  0  0  0  0  0  0  0  0  0
   -9.1351   -0.0206   -0.9847 C   0  0  0  0  0  0  0  0  0  0  0  0
   -8.5959   -2.0847    0.0152 C   0  0  0  0  0  0  0  0  0  0  0  0
   -9.9902   -1.8784    0.1225 C   0  0  0  0  0  0  0  0  0  0  0  0
  -10.3214   -0.6103   -0.4916 C   0  0  0  0  0  0  0  0  0  0  0  0
   -9.1551    1.2019   -1.6359 C   0  0  0  0  0  0  0  0  0  0  0  0
   -7.9969   -3.2308    0.5117 C   0  0  0  0  0  0  0  0  0  0  0  0
    6.5859    0.5471   -0.0506 C   0  0  0  0  0  0  0  0  0  0  0  0
  -10.7963   -2.8209    0.7393 C   0  0  0  0  0  0  0  0  0  0  0  0
  -11.5409    0.0296   -0.6411 C   0  0  0  0  0  0  0  0  0  0  0  0
   -8.8099   -4.1802    1.1334 C   0  0  0  0  0  0  0  0  0  0  0  0
  -10.3844    1.8464   -1.7860 C   0  0  0  0  0  0  0  0  0  0  0  0
  -11.5652    1.2664   -1.2927 C   0  0  0  0  0  0  0  0  0  0  0  0
  -10.1956   -3.9770    1.2465 C   0  0  0  0  0  0  0  0  0  0  0  0
    7.8512    0.8723    0.2502 C   0  0  0  0  0  0  0  0  0  0  0  0
    9.0208    0.0158   -0.0136 C   0  0  0  0  0  0  0  0  0  0  0  0
   10.2979    0.5746   -0.0609 C   0  0  0  0  0  0  0  0  0  0  0  0
    8.8509   -1.3538   -0.2170 C   0  0  0  0  0  0  0  0  0  0  0  0
    9.9581   -2.1644   -0.4677 C   0  0  0  0  0  0  0  0  0  0  0  0
   11.4051   -0.2360   -0.3115 C   0  0  0  0  0  0  0  0  0  0  0  0
   11.2351   -1.6054   -0.5151 C   0  0  0  0  0  0  0  0  0  0  0  0
    8.4407   -3.9907   -0.5992 C   0  0  0  0  0  0  0  0  0  0  0  0
   12.7328    1.7292   -0.1365 C   0  0  0  0  0  0  0  0  0  0  0  0
   12.9653   -2.9758    0.3702 C   0  0  0  0  0  0  0  0  0  0  0  0
   -1.8090    1.4931   -0.8523 H   0  0  0  0  0  0  0  0  0  0  0  0
    0.0690    0.7258    0.6413 H   0  0  0  0  0  0  0  0  0  0  0  0
   -2.9699    1.0395    1.9691 H   0  0  0  0  0  0  0  0  0  0  0  0
   -1.8390   -0.0327    1.1419 H   0  0  0  0  0  0  0  0  0  0  0  0
   -2.8802    3.6778   -0.8387 H   0  0  0  0  0  0  0  0  0  0  0  0
   -3.5825    3.3933    0.7473 H   0  0  0  0  0  0  0  0  0  0  0  0
    0.9756    3.2074   -0.8983 H   0  0  0  0  0  0  0  0  0  0  0  0
    0.1297    1.8348   -1.6002 H   0  0  0  0  0  0  0  0  0  0  0  0
    0.9237    1.8076    2.6871 H   0  0  0  0  0  0  0  0  0  0  0  0
    1.4525    3.2097    1.7364 H   0  0  0  0  0  0  0  0  0  0  0  0
   -3.5102   -0.4586   -0.5893 H   0  0  0  0  0  0  0  0  0  0  0  0
   -4.1816   -0.7609    0.9954 H   0  0  0  0  0  0  0  0  0  0  0  0
   -5.2584    2.9214   -0.9513 H   0  0  0  0  0  0  0  0  0  0  0  0
   -4.1813    1.8433   -1.8075 H   0  0  0  0  0  0  0  0  0  0  0  0
   -5.3143    1.4515    0.9891 H   0  0  0  0  0  0  0  0  0  0  0  0
    1.9732    0.3210   -1.0801 H   0  0  0  0  0  0  0  0  0  0  0  0
    2.4432    0.3267    1.5703 H   0  0  0  0  0  0  0  0  0  0  0  0
    3.3014    1.6976    2.2341 H   0  0  0  0  0  0  0  0  0  0  0  0
    2.5592    1.6876   -2.0005 H   0  0  0  0  0  0  0  0  0  0  0  0
    3.3863    2.7879    0.0085 H   0  0  0  0  0  0  0  0  0  0  0  0
   -1.1861    1.7862    2.8135 H   0  0  0  0  0  0  0  0  0  0  0  0
   -0.6140    3.4611    2.6645 H   0  0  0  0  0  0  0  0  0  0  0  0
   -2.2704    3.1249    2.4077 H   0  0  0  0  0  0  0  0  0  0  0  0
   -7.5064   -1.2837   -1.6390 H   0  0  0  0  0  0  0  0  0  0  0  0
   -8.2467    1.6517   -2.0213 H   0  0  0  0  0  0  0  0  0  0  0  0
   -6.9281   -3.3917    0.4235 H   0  0  0  0  0  0  0  0  0  0  0  0
    6.3040   -0.3787   -0.5381 H   0  0  0  0  0  0  0  0  0  0  0  0
  -11.8680   -2.6798    0.8322 H   0  0  0  0  0  0  0  0  0  0  0  0
  -12.4617   -0.4065   -0.2683 H   0  0  0  0  0  0  0  0  0  0  0  0
   -8.3676   -5.0884    1.5342 H   0  0  0  0  0  0  0  0  0  0  0  0
  -10.4305    2.8075   -2.2911 H   0  0  0  0  0  0  0  0  0  0  0  0
  -10.8082   -4.7309    1.7343 H   0  0  0  0  0  0  0  0  0  0  0  0
  -12.5107    1.7869   -1.4219 H   0  0  0  0  0  0  0  0  0  0  0  0
    8.0726    1.8306    0.7145 H   0  0  0  0  0  0  0  0  0  0  0  0
   10.3731    1.6449    0.1021 H   0  0  0  0  0  0  0  0  0  0  0  0
    7.8526   -1.7659   -0.1464 H   0  0  0  0  0  0  0  0  0  0  0  0
    8.4853   -5.0689   -0.7863 H   0  0  0  0  0  0  0  0  0  0  0  0
    7.8122   -3.5602   -1.3863 H   0  0  0  0  0  0  0  0  0  0  0  0
    8.0107   -3.8621    0.4001 H   0  0  0  0  0  0  0  0  0  0  0  0
   13.7913    2.0011   -0.2059 H   0  0  0  0  0  0  0  0  0  0  0  0
   12.4013    2.0026    0.8711 H   0  0  0  0  0  0  0  0  0  0  0  0
   12.2095    2.2922   -0.9168 H   0  0  0  0  0  0  0  0  0  0  0  0
   13.8053   -3.5777    0.0128 H   0  0  0  0  0  0  0  0  0  0  0  0
   12.2769   -3.6271    0.9180 H   0  0  0  0  0  0  0  0  0  0  0  0
   13.3517   -2.1956    1.0336 H   0  0  0  0  0  0  0  0  0  0  0  0
  1 17  1  0  0  0  0
  1 22  1  0  0  0  0
  2 20  1  0  0  0  0
  2 24  1  0  0  0  0
  3 22  2  0  0  0  0
  4 24  2  0  0  0  0
  5 42  1  0  0  0  0
  5 45  1  0  0  0  0
  6 43  1  0  0  0  0
  6 46  1  0  0  0  0
  7 44  1  0  0  0  0
  7 47  1  0  0  0  0
  8  9  1  0  0  0  0
  8 10  1  0  0  0  0
  8 21  1  0  0  0  0
  9 11  1  0  0  0  0
  9 12  1  0  0  0  0
  9 48  1  0  0  0  0
 10 13  1  0  0  0  0
 10 14  1  0  0  0  0
 10 49  1  0  0  0  0
 11 15  1  0  0  0  0
 11 52  1  0  0  0  0
 11 53  1  0  0  0  0
 12 16  1  0  0  0  0
 12 50  1  0  0  0  0
 12 51  1  0  0  0  0
 13 19  1  0  0  0  0
 13 54  1  0  0  0  0
 13 55  1  0  0  0  0
 14 18  1  0  0  0  0
 14 56  1  0  0  0  0
 14 57  1  0  0  0  0
 15 17  1  0  0  0  0
 15 60  1  0  0  0  0
 15 61  1  0  0  0  0
 16 17  1  0  0  0  0
 16 58  1  0  0  0  0
 16 59  1  0  0  0  0
 17 62  1  0  0  0  0
 18 20  1  0  0  0  0
 18 64  1  0  0  0  0
 18 65  1  0  0  0  0
 19 20  1  0  0  0  0
 19 63  1  0  0  0  0
 19 66  1  0  0  0  0
 20 67  1  0  0  0  0
 21 68  1  0  0  0  0
 21 69  1  0  0  0  0
 21 70  1  0  0  0  0
 22 23  1  0  0  0  0
 23 25  1  0  0  0  0
 23 26  1  0  0  0  0
 23 71  1  0  0  0  0
 24 31  1  0  0  0  0
 25 28  1  0  0  0  0
 25 29  2  0  0  0  0
 26 27  1  0  0  0  0
 26 30  2  0  0  0  0
 27 28  1  0  0  0  0
 27 32  2  0  0  0  0
 28 33  2  0  0  0  0
 29 35  1  0  0  0  0
 29 72  1  0  0  0  0
 30 34  1  0  0  0  0
 30 73  1  0  0  0  0
 31 38  2  0  0  0  0
 31 74  1  0  0  0  0
 32 37  1  0  0  0  0
 32 75  1  0  0  0  0
 33 36  1  0  0  0  0
 33 76  1  0  0  0  0
 34 37  2  0  0  0  0
 34 77  1  0  0  0  0
 35 36  2  0  0  0  0
 35 78  1  0  0  0  0
 36 80  1  0  0  0  0
 37 79  1  0  0  0  0
 38 39  1  0  0  0  0
 38 81  1  0  0  0  0
 39 40  2  0  0  0  0
 39 41  1  0  0  0  0
 40 43  1  0  0  0  0
 40 82  1  0  0  0  0
 41 42  2  0  0  0  0
 41 83  1  0  0  0  0
 42 44  1  0  0  0  0
 43 44  2  0  0  0  0
 45 84  1  0  0  0  0
 45 85  1  0  0  0  0
 45 86  1  0  0  0  0
 46 87  1  0  0  0  0
 46 88  1  0  0  0  0
 46 89  1  0  0  0  0
 47 90  1  0  0  0  0
 47 91  1  0  0  0  0
 47 92  1  0  0  0  0
M  END
> <PUBCHEM_COMPOUND_CID>
71716785

> <PUBCHEM_CONFORMER_RMSD>
1.4

> <PUBCHEM_CONFORMER_DIVERSEORDER>
5
66
80
46
77
72
62
52
32
41
75
65
11
43
42
40
67
53
64
51
19
45
9
30
37
58
73
74
49
63
38
39
36
55
29
44
18
59
31
68
70
78
16
17
76
50
71
15
47
34
22
28
26
24
69
10
61
21
13
35
79
6
27
56
33
60
57
23
4
7
25
54
48
3
20
8
12
2
14
1

> <PUBCHEM_MMFF94_PARTIAL_CHARGES>
49
1 -0.43
10 0.27
17 0.28
2 -0.43
20 0.28
21 0.27
22 0.66
23 0.35
24 0.71
25 -0.14
26 -0.14
29 -0.15
3 -0.57
30 -0.15
31 -0.14
32 -0.15
33 -0.15
34 -0.15
35 -0.15
36 -0.15
37 -0.15
38 -0.18
39 0.03
4 -0.57
40 -0.15
41 -0.15
42 0.08
43 0.08
44 0.08
45 0.28
46 0.28
47 0.28
5 -0.36
6 -0.36
7 -0.36
72 0.15
73 0.15
74 0.15
75 0.15
76 0.15
77 0.15
78 0.15
79 0.15
8 -0.81
80 0.15
81 0.15
82 0.15
83 0.15
9 0.27

> <PUBCHEM_EFFECTIVE_ROTOR_COUNT>
14.6

> <PUBCHEM_PHARMACOPHORE_FEATURES>
12
1 3 acceptor
1 4 acceptor
1 5 acceptor
1 6 acceptor
1 7 acceptor
1 8 cation
5 23 25 26 27 28 rings
6 10 13 14 18 19 20 rings
6 25 28 29 33 35 36 rings
6 26 27 30 32 34 37 rings
6 39 40 41 42 43 44 rings
6 9 11 12 15 16 17 rings

> <PUBCHEM_HEAVY_ATOM_COUNT>
47

> <PUBCHEM_ATOM_DEF_STEREO_COUNT>
0

> <PUBCHEM_ATOM_UDEF_STEREO_COUNT>
0

> <PUBCHEM_BOND_DEF_STEREO_COUNT>
1

> <PUBCHEM_BOND_UDEF_STEREO_COUNT>
0

> <PUBCHEM_ISOTOPIC_ATOM_COUNT>
0

> <PUBCHEM_COMPONENT_COUNT>
1

> <PUBCHEM_CACTVS_TAUTO_COUNT>
1

> <PUBCHEM_CONFORMER_ID>
04464FB100000005

> <PUBCHEM_MMFF94_ENERGY>
163.2455

> <PUBCHEM_FEATURE_SELFOVERLAP>
61.073

> <PUBCHEM_SHAPE_FINGERPRINT>
10168742 298 18407763642485053412
11061554 47 8862948281738446307
11607047 74 18117844528655255764
11672396 167 18343019973930919912
12013929 94 18342459232302396936
12539745 222 18202284671767193777
131240 100 18408884057750456626
14202775 3 18412266138337886222
15065858 18 18410006671596361361
15247644 1 18342175609536602903
15890870 6 18408884036012493194
16067689 302 18201440234579335702
16728433 110 18272085033638385560
19841028 212 18187918453080603307
20105231 36 18413109484766685065
2026 5 18342176644222404862
20609170 114 11527940189546629061
212700 22 18411131437599903350
21792961 116 18202280308860681129
21895431 317 18341049602693375730
2851757 41 18410859884060937219
3986486 107 17603302670272908297
3991529 128 11963392925566445053
44389302 135 16774078471019954398
9937071 3 18202562895331211168

> <PUBCHEM_SHAPE_MULTIPOLES>
921.17
66.4
4.54
1.31
90.48
4.74
-0.25
53.23
15.99
-1.55
-0.94
-2.36
-0.51
6.19

> <PUBCHEM_SHAPE_SELFOVERLAP>
1990.92

> <PUBCHEM_SHAPE_VOLUME>
505.5

> <PUBCHEM_COORDINATE_TYPE>
2
5
10

$$$$