127050524
  -OEChem-03242010103D

 49 53  0     0  0  0  0  0  0999 V2000
    0.6035    0.8197   -0.0544 O   0  0  0  0  0  0  0  0  0  0  0  0
   -2.5932   -2.7943    0.1278 O   0  0  0  0  0  0  0  0  0  0  0  0
    1.9887   -3.7789    0.5447 O   0  0  0  0  0  0  0  0  0  0  0  0
   -1.9606    1.2085   -0.3241 O   0  0  0  0  0  0  0  0  0  0  0  0
    3.6578   -1.8183    0.4795 O   0  0  0  0  0  0  0  0  0  0  0  0
   -1.0163   -0.9394    0.0272 C   0  0  0  0  0  0  0  0  0  0  0  0
    0.3233   -0.5181    0.0716 C   0  0  0  0  0  0  0  0  0  0  0  0
    1.3402   -1.4633    0.2453 C   0  0  0  0  0  0  0  0  0  0  0  0
   -1.3140   -2.2990    0.1583 C   0  0  0  0  0  0  0  0  0  0  0  0
   -2.1427    0.0089   -0.1599 C   0  0  0  0  0  0  0  0  0  0  0  0
    2.9916    0.4364    0.1303 C   0  0  0  0  0  0  0  0  0  0  0  0
   -3.5142   -0.5715   -0.1545 C   0  0  0  0  0  0  0  0  0  0  0  0
    1.0351   -2.8209    0.3743 C   0  0  0  0  0  0  0  0  0  0  0  0
    2.7473   -1.0203    0.2965 C   0  0  0  0  0  0  0  0  0  0  0  0
   -0.2935   -3.2364    0.3302 C   0  0  0  0  0  0  0  0  0  0  0  0
    4.3487    1.0057    0.1196 C   0  0  0  0  0  0  0  0  0  0  0  0
   -4.7163    0.2691   -0.2798 C   0  0  0  0  0  0  0  0  0  0  0  0
    1.9155    1.2191   -0.0297 C   0  0  0  0  0  0  0  0  0  0  0  0
   -3.6220   -1.8993   -0.0128 C   0  0  0  0  0  0  0  0  0  0  0  0
    5.2752    0.5829   -0.8336 C   0  0  0  0  0  0  0  0  0  0  0  0
   -4.9673    1.2717    0.6569 C   0  0  0  0  0  0  0  0  0  0  0  0
    4.7086    1.9678    1.0634 C   0  0  0  0  0  0  0  0  0  0  0  0
   -5.6048    0.0622   -1.3352 C   0  0  0  0  0  0  0  0  0  0  0  0
    6.5616    1.1223   -0.8432 C   0  0  0  0  0  0  0  0  0  0  0  0
   -6.1067    2.0677    0.5383 C   0  0  0  0  0  0  0  0  0  0  0  0
    5.9951    2.5069    1.0540 C   0  0  0  0  0  0  0  0  0  0  0  0
   -6.7442    0.8580   -1.4536 C   0  0  0  0  0  0  0  0  0  0  0  0
    6.9216    2.0843    0.1006 C   0  0  0  0  0  0  0  0  0  0  0  0
   -6.9951    1.8609   -0.5170 C   0  0  0  0  0  0  0  0  0  0  0  0
    7.5524    0.6690   -1.8614 C   0  0  0  0  0  0  0  0  0  0  0  0
   -6.3754    3.1386    1.5407 C   0  0  0  0  0  0  0  0  0  0  0  0
   -0.5362   -4.2918    0.4305 H   0  0  0  0  0  0  0  0  0  0  0  0
    1.9640    2.2923   -0.1683 H   0  0  0  0  0  0  0  0  0  0  0  0
   -4.5652   -2.4313    0.0132 H   0  0  0  0  0  0  0  0  0  0  0  0
    4.9996   -0.1654   -1.5739 H   0  0  0  0  0  0  0  0  0  0  0  0
   -4.2817    1.4332    1.4862 H   0  0  0  0  0  0  0  0  0  0  0  0
    4.0029    2.3066    1.8182 H   0  0  0  0  0  0  0  0  0  0  0  0
   -5.4245   -0.7105   -2.0788 H   0  0  0  0  0  0  0  0  0  0  0  0
    6.2760    3.2546    1.7900 H   0  0  0  0  0  0  0  0  0  0  0  0
   -7.4357    0.6975   -2.2756 H   0  0  0  0  0  0  0  0  0  0  0  0
    7.9213    2.5105    0.1055 H   0  0  0  0  0  0  0  0  0  0  0  0
   -7.8873    2.4729   -0.6197 H   0  0  0  0  0  0  0  0  0  0  0  0
    2.8757   -3.3900    0.5217 H   0  0  0  0  0  0  0  0  0  0  0  0
    8.0737   -0.2254   -1.5061 H   0  0  0  0  0  0  0  0  0  0  0  0
    7.0605    0.4361   -2.8120 H   0  0  0  0  0  0  0  0  0  0  0  0
    8.2949    1.4474   -2.0677 H   0  0  0  0  0  0  0  0  0  0  0  0
   -6.9714    3.9487    1.1068 H   0  0  0  0  0  0  0  0  0  0  0  0
   -5.4415    3.5849    1.8991 H   0  0  0  0  0  0  0  0  0  0  0  0
   -6.9189    2.7248    2.3959 H   0  0  0  0  0  0  0  0  0  0  0  0
  1  7  1  0  0  0  0
  1 18  1  0  0  0  0
  2  9  1  0  0  0  0
  2 19  1  0  0  0  0
  3 13  1  0  0  0  0
  3 43  1  0  0  0  0
  4 10  2  0  0  0  0
  5 14  2  0  0  0  0
  6  7  1  0  0  0  0
  6  9  2  0  0  0  0
  6 10  1  0  0  0  0
  7  8  2  0  0  0  0
  8 13  1  0  0  0  0
  8 14  1  0  0  0  0
  9 15  1  0  0  0  0
 10 12  1  0  0  0  0
 11 14  1  0  0  0  0
 11 16  1  0  0  0  0
 11 18  2  0  0  0  0
 12 17  1  0  0  0  0
 12 19  2  0  0  0  0
 13 15  2  0  0  0  0
 15 32  1  0  0  0  0
 16 20  1  0  0  0  0
 16 22  2  0  0  0  0
 17 21  1  0  0  0  0
 17 23  2  0  0  0  0
 18 33  1  0  0  0  0
 19 34  1  0  0  0  0
 20 24  2  0  0  0  0
 20 35  1  0  0  0  0
 21 25  2  0  0  0  0
 21 36  1  0  0  0  0
 22 26  1  0  0  0  0
 22 37  1  0  0  0  0
 23 27  1  0  0  0  0
 23 38  1  0  0  0  0
 24 28  1  0  0  0  0
 24 30  1  0  0  0  0
 25 29  1  0  0  0  0
 25 31  1  0  0  0  0
 26 28  2  0  0  0  0
 26 39  1  0  0  0  0
 27 29  2  0  0  0  0
 27 40  1  0  0  0  0
 28 41  1  0  0  0  0
 29 42  1  0  0  0  0
 30 44  1  0  0  0  0
 30 45  1  0  0  0  0
 30 46  1  0  0  0  0
 31 47  1  0  0  0  0
 31 48  1  0  0  0  0
 31 49  1  0  0  0  0
M  END
> <PUBCHEM_COMPOUND_CID>
127050524

> <PUBCHEM_CONFORMER_RMSD>
0.6

> <PUBCHEM_CONFORMER_DIVERSEORDER>
1
7
21
4
6
22
23
2
5
3
8
19
9
15
11
14
17
10
20
16
13
18
12

> <PUBCHEM_MMFF94_PARTIAL_CHARGES>
43
1 -0.16
10 0.47
11 -0.01
12 -0.01
13 0.08
14 0.47
15 -0.15
16 0.03
17 0.03
18 -0.07
19 -0.07
2 -0.16
20 -0.15
21 -0.15
22 -0.15
23 -0.15
24 -0.14
25 -0.14
26 -0.15
27 -0.15
28 -0.15
29 -0.15
3 -0.53
30 0.14
31 0.14
32 0.15
33 0.15
34 0.15
35 0.15
36 0.15
37 0.15
38 0.15
39 0.15
4 -0.57
40 0.15
41 0.15
42 0.15
43 0.45
5 -0.57
6 0.09
7 0.08
8 0.09
9 0.08

> <PUBCHEM_EFFECTIVE_ROTOR_COUNT>
2

> <PUBCHEM_PHARMACOPHORE_FEATURES>
10
1 1 acceptor
1 2 acceptor
1 3 donor
1 4 acceptor
1 5 acceptor
6 1 7 8 11 14 18 rings
6 16 20 22 24 26 28 rings
6 17 21 23 25 27 29 rings
6 2 6 9 10 12 19 rings
6 6 7 8 9 13 15 rings

> <PUBCHEM_HEAVY_ATOM_COUNT>
31

> <PUBCHEM_ATOM_DEF_STEREO_COUNT>
0

> <PUBCHEM_ATOM_UDEF_STEREO_COUNT>
0

> <PUBCHEM_BOND_DEF_STEREO_COUNT>
0

> <PUBCHEM_BOND_UDEF_STEREO_COUNT>
0

> <PUBCHEM_ISOTOPIC_ATOM_COUNT>
0

> <PUBCHEM_COMPONENT_COUNT>
1

> <PUBCHEM_CACTVS_TAUTO_COUNT>
48

> <PUBCHEM_CONFORMER_ID>
0792A31C00000001

> <PUBCHEM_MMFF94_ENERGY>
104.7748

> <PUBCHEM_FEATURE_SELFOVERLAP>
50.815

> <PUBCHEM_SHAPE_FINGERPRINT>
10 15 17821729434054540161
10050765 1 18410291415096386499
10411042 1 17617091409037315042
10595046 47 18343292644883491631
10675989 125 18338799992347407282
10816530 90 18335422310503353406
10835480 77 18129097995762989160
10906281 52 18260556618763416234
11007060 377 18342740762564855363
11135609 187 18335970992806980573
11475781 23 18271528689143562268
11578821 258 17901952169631133308
1200032 147 18261398818900301178
12293681 160 18060421321810543179
12342043 65 12469730103748336080
12390115 104 18411143566687741771
12422481 6 17240474814805551830
12788726 201 17488748865806489561
13540713 5 18265310907190574187
13690498 29 17273403092841734271
13944108 23 18055639416855909296
14294032 229 18041278781849428428
14394314 77 18342182112344469009
14790565 3 18409730668333444073
14931854 50 18131627868527628505
15064981 113 16844440519660803349
15183329 4 17775288244118318828
15289351 153 18342168960910781184
1577012 14 18271522010385053169
15927050 60 18410853295550242434
15980000 95 17618503182252183466
16067689 134 18058181526700696865
17899979 129 18200884963040969903
17980427 23 17313386789481683374
18608769 82 18267304412698729283
20554085 129 18058711599021234738
20642791 178 17969512678229497117
21033648 144 18261385621304745799
21033648 29 18198050573021311264
21279426 13 18271814561950148666
21298829 104 18410294692403989381
23559900 14 18200594838859714648
23569914 152 17198563459185489588
2747138 104 17901392504213960635
2748736 6 18410002256385525961
335352 9 18337669707347877934
3411729 13 18260263014704389171
4058900 60 18260833687114627370
4073 2 18187649141029339890
4144715 1 18121504823963443960
4169191 19 18334854987945846101
437795 171 17829889828915812589
4516262 110 18339641123997933349
5104073 3 18187079555319863107
5385378 56 18334294232551739042
5758199 1 18411139126034539849
59682541 52 17203334395026172708
59755656 215 18411983559665142644
6201320 221 13829023265950904780
6328613 192 18410012130414716292
636775 72 18198899391561179360
9896288 288 18042692882282671099
9953998 17 12685089289948677965

> <PUBCHEM_SHAPE_MULTIPOLES>
608.62
20.21
3.67
1.12
2.35
2.17
0.24
-20.69
4.56
-0.81
-1.42
0.09
-0.54
-0.68

> <PUBCHEM_SHAPE_SELFOVERLAP>
1378.424

> <PUBCHEM_SHAPE_VOLUME>
317.7

> <PUBCHEM_COORDINATE_TYPE>
2
5
10

$$$$