25223001
  -OEChem-03242010103D

 77 81  0     1  0  0  0  0  0999 V2000
   11.7974    1.5563    1.1155 O   0  0  0  0  0  0  0  0  0  0  0  0
   12.5414   -0.9888    0.2869 O   0  0  0  0  0  0  0  0  0  0  0  0
   -2.4288   -0.9292    0.4293 O   0  0  0  0  0  0  0  0  0  0  0  0
   -7.5791    3.9408    0.7860 O   0  0  0  0  0  0  0  0  0  0  0  0
   -8.7200    2.2719   -0.3152 O   0  0  0  0  0  0  0  0  0  0  0  0
   -6.5631   -2.3142    0.1568 O   0  0  0  0  0  0  0  0  0  0  0  0
    6.1990   -0.3610   -0.4440 N   0  0  2  0  0  0  0  0  0  0  0  0
   -1.5336    0.9306   -0.6966 N   0  0  0  0  0  0  0  0  0  0  0  0
   -7.4304   -0.1295    0.1358 N   0  0  0  0  0  0  0  0  0  0  0  0
   -9.8919   -1.2037    0.2816 N   0  0  0  0  0  0  0  0  0  0  0  0
  -10.3343   -3.9721    0.3588 N   0  0  0  0  0  0  0  0  0  0  0  0
    6.4393   -1.7731   -0.1220 C   0  0  0  0  0  0  0  0  0  0  0  0
    7.0671    0.5029    0.3757 C   0  0  0  0  0  0  0  0  0  0  0  0
    7.8590   -2.1685   -0.5407 C   0  0  0  0  0  0  0  0  0  0  0  0
    8.5257    0.1097    0.3210 C   0  0  0  0  0  0  0  0  0  0  0  0
    8.9014   -1.1853   -0.0753 C   0  0  0  0  0  0  0  0  0  0  0  0
    4.7937   -0.0133   -0.2374 C   0  0  0  0  0  0  0  0  0  0  0  0
    3.9357   -0.4772   -1.4149 C   0  0  0  0  0  0  0  0  0  0  0  0
    9.5102    1.0194    0.7299 C   0  0  0  0  0  0  0  0  0  0  0  0
   10.2568   -1.5393   -0.0925 C   0  0  0  0  0  0  0  0  0  0  0  0
   10.8564    0.6544    0.7189 C   0  0  0  0  0  0  0  0  0  0  0  0
   11.2293   -0.6227    0.3061 C   0  0  0  0  0  0  0  0  0  0  0  0
    2.4869   -0.1050   -1.2245 C   0  0  0  0  0  0  0  0  0  0  0  0
    1.6192   -0.9848   -0.5774 C   0  0  0  0  0  0  0  0  0  0  0  0
    2.0147    1.1202   -1.6952 C   0  0  0  0  0  0  0  0  0  0  0  0
    0.2792   -0.6393   -0.4011 C   0  0  0  0  0  0  0  0  0  0  0  0
    0.6748    1.4656   -1.5190 C   0  0  0  0  0  0  0  0  0  0  0  0
   -0.1930    0.5858   -0.8720 C   0  0  0  0  0  0  0  0  0  0  0  0
   12.3492    2.4022    0.1083 C   0  0  0  0  0  0  0  0  0  0  0  0
   13.0671   -1.5784    1.4744 C   0  0  0  0  0  0  0  0  0  0  0  0
   -2.5430    0.1815   -0.0777 C   0  0  0  0  0  0  0  0  0  0  0  0
   -3.8770    0.8348   -0.0203 C   0  0  0  0  0  0  0  0  0  0  0  0
   -5.0335    0.0567    0.0297 C   0  0  0  0  0  0  0  0  0  0  0  0
   -3.9720    2.2265   -0.0143 C   0  0  0  0  0  0  0  0  0  0  0  0
   -6.2851    0.6700    0.0859 C   0  0  0  0  0  0  0  0  0  0  0  0
   -6.3801    2.0616    0.0919 C   0  0  0  0  0  0  0  0  0  0  0  0
   -5.2236    2.8398    0.0416 C   0  0  0  0  0  0  0  0  0  0  0  0
   -7.6719    2.7342    0.1500 C   0  0  0  0  0  0  0  0  0  0  0  0
   -7.5034   -1.5269    0.1674 C   0  0  0  0  0  0  0  0  0  0  0  0
   -8.8768   -2.0898    0.2476 C   0  0  0  0  0  0  0  0  0  0  0  0
   -8.7873    4.6989    0.9083 C   0  0  0  0  0  0  0  0  0  0  0  0
   -9.0941   -3.4496    0.2856 C   0  0  0  0  0  0  0  0  0  0  0  0
  -11.1320   -1.7263    0.3545 C   0  0  0  0  0  0  0  0  0  0  0  0
  -11.3494   -3.0860    0.3926 C   0  0  0  0  0  0  0  0  0  0  0  0
    5.7462   -2.4369   -0.6493 H   0  0  0  0  0  0  0  0  0  0  0  0
    6.3007   -1.9552    0.9527 H   0  0  0  0  0  0  0  0  0  0  0  0
    6.7515    0.4839    1.4277 H   0  0  0  0  0  0  0  0  0  0  0  0
    6.9759    1.5339    0.0114 H   0  0  0  0  0  0  0  0  0  0  0  0
    7.9136   -2.2303   -1.6351 H   0  0  0  0  0  0  0  0  0  0  0  0
    8.0815   -3.1637   -0.1375 H   0  0  0  0  0  0  0  0  0  0  0  0
    4.4160   -0.4134    0.7133 H   0  0  0  0  0  0  0  0  0  0  0  0
    4.6905    1.0787   -0.1687 H   0  0  0  0  0  0  0  0  0  0  0  0
    3.9973   -1.5620   -1.5594 H   0  0  0  0  0  0  0  0  0  0  0  0
    4.3044   -0.0335   -2.3495 H   0  0  0  0  0  0  0  0  0  0  0  0
    9.2246    2.0158    1.0595 H   0  0  0  0  0  0  0  0  0  0  0  0
   10.5536   -2.5334   -0.4187 H   0  0  0  0  0  0  0  0  0  0  0  0
    1.9772   -1.9410   -0.2048 H   0  0  0  0  0  0  0  0  0  0  0  0
    2.6816    1.8149   -2.1991 H   0  0  0  0  0  0  0  0  0  0  0  0
   -0.3281   -1.3730    0.1095 H   0  0  0  0  0  0  0  0  0  0  0  0
    0.3209    2.4240   -1.8907 H   0  0  0  0  0  0  0  0  0  0  0  0
   13.0866    3.0583    0.5785 H   0  0  0  0  0  0  0  0  0  0  0  0
   11.5673    3.0210   -0.3432 H   0  0  0  0  0  0  0  0  0  0  0  0
   12.8503    1.8079   -0.6623 H   0  0  0  0  0  0  0  0  0  0  0  0
   14.1225   -1.8081    1.3045 H   0  0  0  0  0  0  0  0  0  0  0  0
   12.5392   -2.5088    1.7065 H   0  0  0  0  0  0  0  0  0  0  0  0
   12.9915   -0.8830    2.3162 H   0  0  0  0  0  0  0  0  0  0  0  0
   -1.7855    1.8242   -1.1096 H   0  0  0  0  0  0  0  0  0  0  0  0
   -4.8925   -1.0134    0.0064 H   0  0  0  0  0  0  0  0  0  0  0  0
   -3.0987    2.8717   -0.0174 H   0  0  0  0  0  0  0  0  0  0  0  0
   -5.2621    3.9261    0.0377 H   0  0  0  0  0  0  0  0  0  0  0  0
   -8.3187    0.3639    0.1678 H   0  0  0  0  0  0  0  0  0  0  0  0
   -8.5545    5.6279    1.4354 H   0  0  0  0  0  0  0  0  0  0  0  0
   -9.5264    4.1394    1.4893 H   0  0  0  0  0  0  0  0  0  0  0  0
   -9.1801    4.9446   -0.0827 H   0  0  0  0  0  0  0  0  0  0  0  0
   -8.2918   -4.1773    0.2591 H   0  0  0  0  0  0  0  0  0  0  0  0
  -11.9480   -1.0148    0.3817 H   0  0  0  0  0  0  0  0  0  0  0  0
  -12.3462   -3.5051    0.4513 H   0  0  0  0  0  0  0  0  0  0  0  0
  1 21  1  0  0  0  0
  1 29  1  0  0  0  0
  2 22  1  0  0  0  0
  2 30  1  0  0  0  0
  3 31  2  0  0  0  0
  4 38  1  0  0  0  0
  4 41  1  0  0  0  0
  5 38  2  0  0  0  0
  6 39  2  0  0  0  0
  7 12  1  0  0  0  0
  7 13  1  0  0  0  0
  7 17  1  0  0  0  0
  8 28  1  0  0  0  0
  8 31  1  0  0  0  0
  8 67  1  0  0  0  0
  9 35  1  0  0  0  0
  9 39  1  0  0  0  0
  9 71  1  0  0  0  0
 10 40  2  0  0  0  0
 10 43  1  0  0  0  0
 11 42  2  0  0  0  0
 11 44  1  0  0  0  0
 12 14  1  0  0  0  0
 12 45  1  0  0  0  0
 12 46  1  0  0  0  0
 13 15  1  0  0  0  0
 13 47  1  0  0  0  0
 13 48  1  0  0  0  0
 14 16  1  0  0  0  0
 14 49  1  0  0  0  0
 14 50  1  0  0  0  0
 15 16  1  0  0  0  0
 15 19  2  0  0  0  0
 16 20  2  0  0  0  0
 17 18  1  0  0  0  0
 17 51  1  0  0  0  0
 17 52  1  0  0  0  0
 18 23  1  0  0  0  0
 18 53  1  0  0  0  0
 18 54  1  0  0  0  0
 19 21  1  0  0  0  0
 19 55  1  0  0  0  0
 20 22  1  0  0  0  0
 20 56  1  0  0  0  0
 21 22  2  0  0  0  0
 23 24  2  0  0  0  0
 23 25  1  0  0  0  0
 24 26  1  0  0  0  0
 24 57  1  0  0  0  0
 25 27  2  0  0  0  0
 25 58  1  0  0  0  0
 26 28  2  0  0  0  0
 26 59  1  0  0  0  0
 27 28  1  0  0  0  0
 27 60  1  0  0  0  0
 29 61  1  0  0  0  0
 29 62  1  0  0  0  0
 29 63  1  0  0  0  0
 30 64  1  0  0  0  0
 30 65  1  0  0  0  0
 30 66  1  0  0  0  0
 31 32  1  0  0  0  0
 32 33  2  0  0  0  0
 32 34  1  0  0  0  0
 33 35  1  0  0  0  0
 33 68  1  0  0  0  0
 34 37  2  0  0  0  0
 34 69  1  0  0  0  0
 35 36  2  0  0  0  0
 36 37  1  0  0  0  0
 36 38  1  0  0  0  0
 37 70  1  0  0  0  0
 39 40  1  0  0  0  0
 40 42  1  0  0  0  0
 41 72  1  0  0  0  0
 41 73  1  0  0  0  0
 41 74  1  0  0  0  0
 42 75  1  0  0  0  0
 43 44  2  0  0  0  0
 43 76  1  0  0  0  0
 44 77  1  0  0  0  0
M  END
> <PUBCHEM_COMPOUND_CID>
25223001

> <PUBCHEM_CONFORMER_RMSD>
1.4

> <PUBCHEM_CONFORMER_DIVERSEORDER>
3
21
23
38
10
8
34
18
31
4
26
24
2
37
6
17
5
28
9
12
19
33
27
16
25
11
32
22
29
36
35
15
7
30
14
1
20
13

> <PUBCHEM_MMFF94_PARTIAL_CHARGES>
58
1 -0.36
10 -0.62
11 -0.62
12 0.27
13 0.41
14 0.14
15 -0.14
16 -0.14
17 0.27
18 0.14
19 -0.15
2 -0.36
20 -0.15
21 0.08
22 0.08
23 -0.14
24 -0.15
25 -0.15
26 -0.15
27 -0.15
28 0.12
29 0.28
3 -0.57
30 0.28
31 0.54
32 0.09
33 -0.15
34 -0.15
35 0.12
36 0.09
37 -0.15
38 0.63
39 0.54
4 -0.43
40 0.4
41 0.28
42 0.16
43 0.16
44 0.16
5 -0.57
55 0.15
56 0.15
57 0.15
58 0.15
59 0.15
6 -0.57
60 0.15
67 0.37
68 0.15
69 0.15
7 -0.81
70 0.15
71 0.37
75 0.15
76 0.15
77 0.15
8 -0.55
9 -0.55

> <PUBCHEM_EFFECTIVE_ROTOR_COUNT>
13.8

> <PUBCHEM_PHARMACOPHORE_FEATURES>
15
1 1 acceptor
1 10 acceptor
1 11 acceptor
1 2 acceptor
1 3 acceptor
1 5 acceptor
1 6 acceptor
1 7 cation
1 8 donor
1 9 donor
6 10 11 40 42 43 44 rings
6 15 16 19 20 21 22 rings
6 23 24 25 26 27 28 rings
6 32 33 34 35 36 37 rings
6 7 12 13 14 15 16 rings

> <PUBCHEM_HEAVY_ATOM_COUNT>
44

> <PUBCHEM_ATOM_DEF_STEREO_COUNT>
0

> <PUBCHEM_ATOM_UDEF_STEREO_COUNT>
0

> <PUBCHEM_BOND_DEF_STEREO_COUNT>
0

> <PUBCHEM_BOND_UDEF_STEREO_COUNT>
0

> <PUBCHEM_ISOTOPIC_ATOM_COUNT>
0

> <PUBCHEM_COMPONENT_COUNT>
1

> <PUBCHEM_CACTVS_TAUTO_COUNT>
6

> <PUBCHEM_CONFORMER_ID>
0180DF5900000003

> <PUBCHEM_MMFF94_ENERGY>
160.6369

> <PUBCHEM_FEATURE_SELFOVERLAP>
76.157

> <PUBCHEM_SHAPE_FINGERPRINT>
10100884 174 18263084461222822083
10580692 12 18410856564346791746
11672396 167 18260831531810632269
12013929 94 18410856577347764371
12089408 11 17968104118356794516
12498461 61 18335140891450323299
13740195 50 18413106173832105430
13947934 56 18407759244823722637
13974486 7 18124875918837654335
15065858 18 18343021056584016366
15145343 6 18059853974654921768
15247644 1 17095242531532937730
15274700 256 18411418444562816419
15392192 104 18343018879416022446
15554971 5 17821740441491386885
1754911 235 10303810973943543052
19315958 150 18059858325683827838
20156587 128 10447934958202430012
21102433 48 18040712572242740874
21362267 2 16916483919354077640
21895431 317 18040429971794493266
3092352 35 18260265249469419946
3991529 128 16773799230169963712
4339292 15 16515399681382775527
4353968 344 17530960285981295925
44280117 145 18411984668236053885

> <PUBCHEM_SHAPE_MULTIPOLES>
845.38
60.62
4.05
1.02
84.22
1.55
-0.19
-19.58
21.37
-16.96
1.06
1.41
0.2
0.15

> <PUBCHEM_SHAPE_SELFOVERLAP>
1832.433

> <PUBCHEM_SHAPE_VOLUME>
460.3

> <PUBCHEM_COORDINATE_TYPE>
2
5
10

$$$$