127051626
  -OEChem-03242010103D

 51 55  0     0  0  0  0  0  0999 V2000
    0.6162    0.5974   -0.0135 O   0  0  0  0  0  0  0  0  0  0  0  0
   -2.5971   -3.0056    0.0576 O   0  0  0  0  0  0  0  0  0  0  0  0
    1.9873   -4.0329    0.3103 O   0  0  0  0  0  0  0  0  0  0  0  0
   -1.9512    1.0123   -0.1997 O   0  0  0  0  0  0  0  0  0  0  0  0
    3.6664   -2.0796    0.3069 O   0  0  0  0  0  0  0  0  0  0  0  0
    8.1989    2.3474    0.0360 O   0  0  0  0  0  0  0  0  0  0  0  0
   -8.0903    2.4903   -0.2869 O   0  0  0  0  0  0  0  0  0  0  0  0
   -1.0118   -1.1556    0.0156 C   0  0  0  0  0  0  0  0  0  0  0  0
    0.3310   -0.7438    0.0492 C   0  0  0  0  0  0  0  0  0  0  0  0
    1.3460   -1.7017    0.1483 C   0  0  0  0  0  0  0  0  0  0  0  0
   -1.3146   -2.5188    0.0827 C   0  0  0  0  0  0  0  0  0  0  0  0
   -2.1366   -0.1934   -0.0941 C   0  0  0  0  0  0  0  0  0  0  0  0
    1.0358   -3.0627    0.2136 C   0  0  0  0  0  0  0  0  0  0  0  0
    2.7566   -1.2688    0.1882 C   0  0  0  0  0  0  0  0  0  0  0  0
    3.0057    0.1935    0.0925 C   0  0  0  0  0  0  0  0  0  0  0  0
   -3.5111   -0.7667   -0.0855 C   0  0  0  0  0  0  0  0  0  0  0  0
   -0.2960   -3.4689    0.1803 C   0  0  0  0  0  0  0  0  0  0  0  0
    4.3656    0.7560    0.0784 C   0  0  0  0  0  0  0  0  0  0  0  0
   -4.7107    0.0852   -0.1373 C   0  0  0  0  0  0  0  0  0  0  0  0
    1.9309    0.9887    0.0000 C   0  0  0  0  0  0  0  0  0  0  0  0
   -3.6236   -2.0996   -0.0109 C   0  0  0  0  0  0  0  0  0  0  0  0
    5.2654    0.3809   -0.9192 C   0  0  0  0  0  0  0  0  0  0  0  0
    4.7542    1.6655    1.0620 C   0  0  0  0  0  0  0  0  0  0  0  0
   -4.9317    1.0399    0.8554 C   0  0  0  0  0  0  0  0  0  0  0  0
   -5.6257   -0.0617   -1.1798 C   0  0  0  0  0  0  0  0  0  0  0  0
    6.5537    0.9154   -0.9334 C   0  0  0  0  0  0  0  0  0  0  0  0
    6.0425    2.2001    1.0479 C   0  0  0  0  0  0  0  0  0  0  0  0
   -6.0675    1.8481    0.8053 C   0  0  0  0  0  0  0  0  0  0  0  0
   -6.7615    0.7464   -1.2300 C   0  0  0  0  0  0  0  0  0  0  0  0
    6.9422    1.8250    0.0501 C   0  0  0  0  0  0  0  0  0  0  0  0
   -6.9823    1.7013   -0.2374 C   0  0  0  0  0  0  0  0  0  0  0  0
    9.0675    1.9205   -1.0125 C   0  0  0  0  0  0  0  0  0  0  0  0
   -8.2540    3.4458    0.7601 C   0  0  0  0  0  0  0  0  0  0  0  0
   -0.5427   -4.5269    0.2312 H   0  0  0  0  0  0  0  0  0  0  0  0
    1.9825    2.0675   -0.0834 H   0  0  0  0  0  0  0  0  0  0  0  0
   -4.5691   -2.6276    0.0103 H   0  0  0  0  0  0  0  0  0  0  0  0
    4.9772   -0.3232   -1.6963 H   0  0  0  0  0  0  0  0  0  0  0  0
    4.0695    1.9667    1.8512 H   0  0  0  0  0  0  0  0  0  0  0  0
   -4.2310    1.1643    1.6776 H   0  0  0  0  0  0  0  0  0  0  0  0
   -5.4688   -0.7960   -1.9663 H   0  0  0  0  0  0  0  0  0  0  0  0
    2.8759   -3.6476    0.2861 H   0  0  0  0  0  0  0  0  0  0  0  0
    7.2010    0.5819   -1.7373 H   0  0  0  0  0  0  0  0  0  0  0  0
    6.3399    2.9075    1.8172 H   0  0  0  0  0  0  0  0  0  0  0  0
   -6.1777    2.5684    1.6086 H   0  0  0  0  0  0  0  0  0  0  0  0
   -7.4700    0.6286   -2.0453 H   0  0  0  0  0  0  0  0  0  0  0  0
   10.0238    2.4341   -0.8691 H   0  0  0  0  0  0  0  0  0  0  0  0
    8.6885    2.2194   -1.9957 H   0  0  0  0  0  0  0  0  0  0  0  0
    9.2701    0.8457   -0.9548 H   0  0  0  0  0  0  0  0  0  0  0  0
   -7.4485    4.1879    0.7572 H   0  0  0  0  0  0  0  0  0  0  0  0
   -8.3669    2.9593    1.7349 H   0  0  0  0  0  0  0  0  0  0  0  0
   -9.1862    3.9853    0.5624 H   0  0  0  0  0  0  0  0  0  0  0  0
  1  9  1  0  0  0  0
  1 20  1  0  0  0  0
  2 11  1  0  0  0  0
  2 21  1  0  0  0  0
  3 13  1  0  0  0  0
  3 41  1  0  0  0  0
  4 12  2  0  0  0  0
  5 14  2  0  0  0  0
  6 30  1  0  0  0  0
  6 32  1  0  0  0  0
  7 31  1  0  0  0  0
  7 33  1  0  0  0  0
  8  9  1  0  0  0  0
  8 11  2  0  0  0  0
  8 12  1  0  0  0  0
  9 10  2  0  0  0  0
 10 13  1  0  0  0  0
 10 14  1  0  0  0  0
 11 17  1  0  0  0  0
 12 16  1  0  0  0  0
 13 17  2  0  0  0  0
 14 15  1  0  0  0  0
 15 18  1  0  0  0  0
 15 20  2  0  0  0  0
 16 19  1  0  0  0  0
 16 21  2  0  0  0  0
 17 34  1  0  0  0  0
 18 22  2  0  0  0  0
 18 23  1  0  0  0  0
 19 24  2  0  0  0  0
 19 25  1  0  0  0  0
 20 35  1  0  0  0  0
 21 36  1  0  0  0  0
 22 26  1  0  0  0  0
 22 37  1  0  0  0  0
 23 27  2  0  0  0  0
 23 38  1  0  0  0  0
 24 28  1  0  0  0  0
 24 39  1  0  0  0  0
 25 29  2  0  0  0  0
 25 40  1  0  0  0  0
 26 30  2  0  0  0  0
 26 42  1  0  0  0  0
 27 30  1  0  0  0  0
 27 43  1  0  0  0  0
 28 31  2  0  0  0  0
 28 44  1  0  0  0  0
 29 31  1  0  0  0  0
 29 45  1  0  0  0  0
 32 46  1  0  0  0  0
 32 47  1  0  0  0  0
 32 48  1  0  0  0  0
 33 49  1  0  0  0  0
 33 50  1  0  0  0  0
 33 51  1  0  0  0  0
M  END
> <PUBCHEM_COMPOUND_CID>
127051626

> <PUBCHEM_CONFORMER_RMSD>
0.8

> <PUBCHEM_CONFORMER_DIVERSEORDER>
1
2

> <PUBCHEM_MMFF94_PARTIAL_CHARGES>
45
1 -0.16
10 0.09
11 0.08
12 0.47
13 0.08
14 0.47
15 -0.01
16 -0.01
17 -0.15
18 0.03
19 0.03
2 -0.16
20 -0.07
21 -0.07
22 -0.15
23 -0.15
24 -0.15
25 -0.15
26 -0.15
27 -0.15
28 -0.15
29 -0.15
3 -0.53
30 0.08
31 0.08
32 0.28
33 0.28
34 0.15
35 0.15
36 0.15
37 0.15
38 0.15
39 0.15
4 -0.57
40 0.15
41 0.45
42 0.15
43 0.15
44 0.15
45 0.15
5 -0.57
6 -0.36
7 -0.36
8 0.09
9 0.08

> <PUBCHEM_EFFECTIVE_ROTOR_COUNT>
4

> <PUBCHEM_PHARMACOPHORE_FEATURES>
12
1 1 acceptor
1 2 acceptor
1 3 donor
1 4 acceptor
1 5 acceptor
1 6 acceptor
1 7 acceptor
6 1 9 10 14 15 20 rings
6 18 22 23 26 27 30 rings
6 19 24 25 28 29 31 rings
6 2 8 11 12 16 21 rings
6 8 9 10 11 13 17 rings

> <PUBCHEM_HEAVY_ATOM_COUNT>
33

> <PUBCHEM_ATOM_DEF_STEREO_COUNT>
0

> <PUBCHEM_ATOM_UDEF_STEREO_COUNT>
0

> <PUBCHEM_BOND_DEF_STEREO_COUNT>
0

> <PUBCHEM_BOND_UDEF_STEREO_COUNT>
0

> <PUBCHEM_ISOTOPIC_ATOM_COUNT>
0

> <PUBCHEM_COMPONENT_COUNT>
1

> <PUBCHEM_CACTVS_TAUTO_COUNT>
6

> <PUBCHEM_CONFORMER_ID>
0792A76A00000001

> <PUBCHEM_MMFF94_ENERGY>
128.4488

> <PUBCHEM_FEATURE_SELFOVERLAP>
60.967

> <PUBCHEM_SHAPE_FINGERPRINT>
10 15 18040152924891485073
10006869 2 18340480063494620652
10165383 225 18409166614600210805
10190206 1 17918002654417792984
10411042 1 17545881525400223754
10675989 125 18338516318099625146
10864689 126 18201435913435969512
10906281 52 18186807988695319495
11135609 187 18411135806209248233
11297010 23 18131072628462042742
11297750 10 17317316208243882286
11409948 41 15625679211290634476
11475781 23 18271252698755420108
11578821 258 17975977880808390860
1200032 147 18333450924007019498
12236239 1 17986944152121382087
12522641 68 18201719565666142239
12838862 33 18336812169898240068
13248334 5 18122343480315582618
13540713 5 18338496595921739595
13690498 29 17344618469457550119
14294032 229 18260258676781821148
14394314 77 18335420192319611668
14790565 3 18192435383895985268
14931854 50 17846501426111127640
15064981 113 16486410967623489613
15183329 4 17346602958362877840
15198563 99 17625812043699959863
15347591 1 18410575076443624331
15351339 4 18202002076040720592
15439362 3 18340207392874585999
1577012 14 18343015567805618405
15803439 3 16845291661249789455
15980000 95 17618785756740606306
17899979 129 18201162044408574503
18608769 82 18267868462105918499
19302320 297 17967819370320222188
2026 5 9943809976221240213
20554085 129 18059559309527625018
20642791 178 18042415792514333829
21033648 144 18334003974826019759
21033648 29 17096362840325374511
21033650 10 15410624640733517003
21279426 13 18343029912891288414
21298829 104 18410293597334898605
21585482 111 18336544902932372757
21781055 127 18200870687423883066
23559900 14 18129101307335053656
23569914 152 17485105011373640606
23576562 1 17416955317404357821
23729398 52 18121786023925987170
24771293 8 18334574642619426637
335352 9 18338797797609011254
3411729 13 18334293128334057619
3633792 109 18271529711060734146
3918712 181 18341606018983773096
406291 66 10087640398799787381
4073 2 18333454223396932051
4169191 19 18408880720735220389
437795 171 17829325783814211829
4516262 110 18337947884612235541
5104073 3 18187361034607547179
5265222 85 17978517756824921662
5385378 56 18334010558441145842
54583773 228 18341886374413630501
5758199 1 18411136927000637317
5937810 71 17775012267501997265
6327066 14 18410855473076562271
6328613 192 18411420609110119912
9896288 288 18042690691875801835
9980921 7 18113330926179908525

> <PUBCHEM_SHAPE_MULTIPOLES>
638.04
24.08
4.04
0.93
4.05
2.52
0.08
-31.8
3.31
-1.53
-0.81
0.03
-0.37
-0.81

> <PUBCHEM_SHAPE_SELFOVERLAP>
1439.248

> <PUBCHEM_SHAPE_VOLUME>
334

> <PUBCHEM_COORDINATE_TYPE>
2
5
10

$$$$