6
 OpenBabel03292022243D

 85 88  0  0  0  0  0  0  0  0999 V2000
   18.2316    0.5391    1.6359 C   0  0  0  0  0  0  0  0  0  0  0  0
   17.5329    1.7547    1.8956 O   0  0  0  0  0  0  0  0  0  0  0  0
   16.4034    1.9753    1.1438 C   0  0  0  0  0  0  0  0  0  0  0  0
   15.6149    0.8916    0.7109 C   0  0  0  0  0  0  0  0  0  0  0  0
   14.5111    1.0763   -0.1184 C   0  0  0  0  0  0  0  0  0  0  0  0
   13.7564   -0.0330   -0.7068 C   0  0  0  0  0  0  0  0  0  0  0  0
   13.6768   -1.2763   -0.1976 C   0  0  0  0  0  0  0  0  0  0  0  0
   12.9038   -2.3074   -0.9300 C   0  0  0  0  0  0  0  0  0  0  0  0
   12.2853   -2.1202   -1.9542 O   0  0  0  0  0  0  0  0  0  0  0  0
   13.0200   -3.4666   -0.2352 O   0  0  0  0  0  0  0  0  0  0  0  0
   12.2847   -4.5720   -0.7861 C   0  0  0  0  0  0  0  0  0  0  0  0
   13.0863   -5.2683   -1.8811 C   0  0  0  0  0  0  0  0  0  0  0  0
   12.2728   -6.4119   -2.4849 C   0  0  0  0  0  0  0  0  0  0  0  0
   13.0031   -7.1434   -3.6172 C   0  0  0  0  0  0  0  0  0  0  0  0
   14.3041   -7.7303   -3.2565 N   0  0  0  0  0  0  0  0  0  0  0  0
   14.1844   -8.7244   -2.1852 C   0  0  0  0  0  0  0  0  0  0  0  0
   14.9552   -8.3434   -4.4281 C   0  0  0  0  0  0  0  0  0  0  0  0
   15.4062   -7.3304   -5.4950 C   0  0  0  0  0  0  0  0  0  0  0  0
   16.3694   -6.2584   -4.9792 C   0  0  0  0  0  0  0  0  0  0  0  0
   17.7219   -6.8584   -4.5977 C   0  0  0  0  0  0  0  0  0  0  0  0
   18.6277   -5.8219   -4.1924 O   0  0  0  0  0  0  0  0  0  0  0  0
   18.6731   -5.6612   -2.8523 C   0  0  0  0  0  0  0  0  0  0  0  0
   18.0652   -6.3183   -2.0189 O   0  0  0  0  0  0  0  0  0  0  0  0
   19.5859   -4.5691   -2.4447 C   0  0  0  0  0  0  0  0  0  0  0  0
   20.4941   -4.9625   -1.4459 C   0  0  0  0  0  0  0  0  0  0  0  0
   21.0909   -6.2391   -1.4416 C   0  0  0  0  0  0  0  0  0  0  0  0
   21.5541   -6.7886   -0.2579 C   0  0  0  0  0  0  0  0  0  0  0  0
   21.5374   -6.0205    0.8998 C   0  0  0  0  0  0  0  0  0  0  0  0
   21.1914   -4.6659    0.8347 C   0  0  0  0  0  0  0  0  0  0  0  0
   20.6816   -4.1062   -0.3517 C   0  0  0  0  0  0  0  0  0  0  0  0
   20.2457   -2.7695   -0.4648 C   0  0  0  0  0  0  0  0  0  0  0  0
   19.5019   -2.3182   -1.5802 C   0  0  0  0  0  0  0  0  0  0  0  0
   19.0543   -0.9902   -1.6846 C   0  0  0  0  0  0  0  0  0  0  0  0
   18.1598   -0.5971   -2.6833 C   0  0  0  0  0  0  0  0  0  0  0  0
   17.7302   -1.5178   -3.6266 C   0  0  0  0  0  0  0  0  0  0  0  0
   18.2081   -2.8236   -3.5760 C   0  0  0  0  0  0  0  0  0  0  0  0
   19.1019   -3.2475   -2.5621 C   0  0  0  0  0  0  0  0  0  0  0  0
   14.1707    2.3824   -0.4685 C   0  0  0  0  0  0  0  0  0  0  0  0
   14.8900    3.4896    0.0109 C   0  0  0  0  0  0  0  0  0  0  0  0
   14.3467    4.6640   -0.4518 O   0  0  0  0  0  0  0  0  0  0  0  0
   14.9467    5.9022   -0.1079 C   0  0  0  0  0  0  0  0  0  0  0  0
   16.0199    3.2996    0.8347 C   0  0  0  0  0  0  0  0  0  0  0  0
   16.6290    4.4355    1.2942 O   0  0  0  0  0  0  0  0  0  0  0  0
   17.9442    4.3948    1.8203 C   0  0  0  0  0  0  0  0  0  0  0  0
   19.3056    0.7430    1.6750 H   0  0  0  0  0  0  0  0  0  0  0  0
   18.0208    0.1275    0.6472 H   0  0  0  0  0  0  0  0  0  0  0  0
   17.9851   -0.1995    2.4034 H   0  0  0  0  0  0  0  0  0  0  0  0
   15.8788   -0.1168    1.0163 H   0  0  0  0  0  0  0  0  0  0  0  0
   13.2365    0.1833   -1.6398 H   0  0  0  0  0  0  0  0  0  0  0  0
   14.1488   -1.5774    0.7301 H   0  0  0  0  0  0  0  0  0  0  0  0
   11.3040   -4.2436   -1.1450 H   0  0  0  0  0  0  0  0  0  0  0  0
   12.1022   -5.2707    0.0373 H   0  0  0  0  0  0  0  0  0  0  0  0
   14.0320   -5.6315   -1.4597 H   0  0  0  0  0  0  0  0  0  0  0  0
   13.3622   -4.5499   -2.6625 H   0  0  0  0  0  0  0  0  0  0  0  0
   11.3423   -6.0016   -2.8992 H   0  0  0  0  0  0  0  0  0  0  0  0
   11.9691   -7.1165   -1.7032 H   0  0  0  0  0  0  0  0  0  0  0  0
   13.1450   -6.4017   -4.4107 H   0  0  0  0  0  0  0  0  0  0  0  0
   12.3376   -7.9158   -4.0231 H   0  0  0  0  0  0  0  0  0  0  0  0
   13.7924   -8.2810   -1.2646 H   0  0  0  0  0  0  0  0  0  0  0  0
   15.1698   -9.1245   -1.9189 H   0  0  0  0  0  0  0  0  0  0  0  0
   13.5384   -9.5620   -2.4714 H   0  0  0  0  0  0  0  0  0  0  0  0
   14.2912   -9.0835   -4.8927 H   0  0  0  0  0  0  0  0  0  0  0  0
   15.8415   -8.9022   -4.1018 H   0  0  0  0  0  0  0  0  0  0  0  0
   14.5370   -6.8437   -5.9500 H   0  0  0  0  0  0  0  0  0  0  0  0
   15.8930   -7.8820   -6.3096 H   0  0  0  0  0  0  0  0  0  0  0  0
   15.9344   -5.7086   -4.1354 H   0  0  0  0  0  0  0  0  0  0  0  0
   16.5275   -5.5064   -5.7622 H   0  0  0  0  0  0  0  0  0  0  0  0
   18.1706   -7.3579   -5.4547 H   0  0  0  0  0  0  0  0  0  0  0  0
   17.6090   -7.6208   -3.8164 H   0  0  0  0  0  0  0  0  0  0  0  0
   21.1156   -6.8348   -2.3534 H   0  0  0  0  0  0  0  0  0  0  0  0
   21.8623   -7.8303   -0.2361 H   0  0  0  0  0  0  0  0  0  0  0  0
   21.7863   -6.4811    1.8500 H   0  0  0  0  0  0  0  0  0  0  0  0
   21.2332   -4.0722    1.7486 H   0  0  0  0  0  0  0  0  0  0  0  0
   20.4397   -2.0824    0.3581 H   0  0  0  0  0  0  0  0  0  0  0  0
   19.3877   -0.2449   -0.9681 H   0  0  0  0  0  0  0  0  0  0  0  0
   17.7901    0.4246   -2.7174 H   0  0  0  0  0  0  0  0  0  0  0  0
   17.0312   -1.2267   -4.4067 H   0  0  0  0  0  0  0  0  0  0  0  0
   17.8751   -3.5109   -4.3491 H   0  0  0  0  0  0  0  0  0  0  0  0
   13.3180    2.5628   -1.1218 H   0  0  0  0  0  0  0  0  0  0  0  0
   14.3908    6.6901   -0.6252 H   0  0  0  0  0  0  0  0  0  0  0  0
   15.9813    5.9601   -0.4595 H   0  0  0  0  0  0  0  0  0  0  0  0
   14.8597    6.0965    0.9651 H   0  0  0  0  0  0  0  0  0  0  0  0
   18.2460    5.4296    2.0156 H   0  0  0  0  0  0  0  0  0  0  0  0
   18.6514    3.9802    1.0953 H   0  0  0  0  0  0  0  0  0  0  0  0
   17.9803    3.8758    2.7814 H   0  0  0  0  0  0  0  0  0  0  0  0
  1  2  1  0  0  0  0
  1 45  1  0  0  0  0
  1 46  1  0  0  0  0
  1 47  1  0  0  0  0
  2  3  1  0  0  0  0
  3  4  1  0  0  0  0
  3 42  2  0  0  0  0
  4  5  2  0  0  0  0
  4 48  1  0  0  0  0
  5  6  1  0  0  0  0
  5 38  1  0  0  0  0
  6  7  2  0  0  0  0
  6 49  1  0  0  0  0
  7  8  1  0  0  0  0
  7 50  1  0  0  0  0
  8  9  2  0  0  0  0
  8 10  1  0  0  0  0
 10 11  1  0  0  0  0
 11 12  1  0  0  0  0
 11 51  1  0  0  0  0
 11 52  1  0  0  0  0
 12 13  1  0  0  0  0
 12 53  1  0  0  0  0
 12 54  1  0  0  0  0
 13 14  1  0  0  0  0
 13 55  1  0  0  0  0
 13 56  1  0  0  0  0
 14 15  1  0  0  0  0
 14 57  1  0  0  0  0
 14 58  1  0  0  0  0
 15 16  1  0  0  0  0
 15 17  1  0  0  0  0
 16 59  1  0  0  0  0
 16 60  1  0  0  0  0
 16 61  1  0  0  0  0
 17 18  1  0  0  0  0
 17 62  1  0  0  0  0
 17 63  1  0  0  0  0
 18 19  1  0  0  0  0
 18 64  1  0  0  0  0
 18 65  1  0  0  0  0
 19 20  1  0  0  0  0
 19 66  1  0  0  0  0
 19 67  1  0  0  0  0
 20 21  1  0  0  0  0
 20 68  1  0  0  0  0
 20 69  1  0  0  0  0
 21 22  1  0  0  0  0
 22 23  2  0  0  0  0
 22 24  1  0  0  0  0
 24 25  1  0  0  0  0
 24 37  2  0  0  0  0
 25 26  1  0  0  0  0
 25 30  2  0  0  0  0
 26 27  2  0  0  0  0
 26 70  1  0  0  0  0
 27 28  1  0  0  0  0
 27 71  1  0  0  0  0
 28 29  2  0  0  0  0
 28 72  1  0  0  0  0
 29 30  1  0  0  0  0
 29 73  1  0  0  0  0
 30 31  1  0  0  0  0
 31 32  2  0  0  0  0
 31 74  1  0  0  0  0
 32 33  1  0  0  0  0
 32 37  1  0  0  0  0
 33 34  2  0  0  0  0
 33 75  1  0  0  0  0
 34 35  1  0  0  0  0
 34 76  1  0  0  0  0
 35 36  2  0  0  0  0
 35 77  1  0  0  0  0
 36 37  1  0  0  0  0
 36 78  1  0  0  0  0
 38 39  2  0  0  0  0
 38 79  1  0  0  0  0
 39 40  1  0  0  0  0
 39 42  1  0  0  0  0
 40 41  1  0  0  0  0
 41 80  1  0  0  0  0
 41 81  1  0  0  0  0
 41 82  1  0  0  0  0
 42 43  1  0  0  0  0
 43 44  1  0  0  0  0
 44 83  1  0  0  0  0
 44 84  1  0  0  0  0
 44 85  1  0  0  0  0
M  END
>  <Energy>
138.848

$$$$