127051628
  -OEChem-03242010103D

 59 63  0     0  0  0  0  0  0999 V2000
    0.6287    0.2448   -0.2790 O   0  0  0  0  0  0  0  0  0  0  0  0
   -2.6478   -3.2135    0.5069 O   0  0  0  0  0  0  0  0  0  0  0  0
    1.9218   -4.2822    0.8428 O   0  0  0  0  0  0  0  0  0  0  0  0
   -1.9346    0.6775   -0.4823 O   0  0  0  0  0  0  0  0  0  0  0  0
    3.6360   -2.3997    0.4526 O   0  0  0  0  0  0  0  0  0  0  0  0
    6.5160    2.9262    1.1454 O   0  0  0  0  0  0  0  0  0  0  0  0
   -6.1730    2.8632    1.2441 O   0  0  0  0  0  0  0  0  0  0  0  0
    8.2461    1.7924   -0.7116 O   0  0  0  0  0  0  0  0  0  0  0  0
   -8.0536    2.2446   -0.7074 O   0  0  0  0  0  0  0  0  0  0  0  0
   -1.0302   -1.4373    0.0993 C   0  0  0  0  0  0  0  0  0  0  0  0
    0.3204   -1.0566    0.0298 C   0  0  0  0  0  0  0  0  0  0  0  0
    1.3198   -2.0039    0.2779 C   0  0  0  0  0  0  0  0  0  0  0  0
   -1.3562   -2.7592    0.4168 C   0  0  0  0  0  0  0  0  0  0  0  0
   -2.1394   -0.4852   -0.1577 C   0  0  0  0  0  0  0  0  0  0  0  0
    0.9862   -3.3238    0.5935 C   0  0  0  0  0  0  0  0  0  0  0  0
    3.0122   -0.1875   -0.1529 C   0  0  0  0  0  0  0  0  0  0  0  0
    2.7387   -1.6029    0.2094 C   0  0  0  0  0  0  0  0  0  0  0  0
   -3.5236   -1.0164   -0.0170 C   0  0  0  0  0  0  0  0  0  0  0  0
   -0.3532   -3.6992    0.6621 C   0  0  0  0  0  0  0  0  0  0  0  0
    4.3814    0.3324   -0.2968 C   0  0  0  0  0  0  0  0  0  0  0  0
   -4.7082   -0.1608   -0.1956 C   0  0  0  0  0  0  0  0  0  0  0  0
    1.9502    0.6023   -0.3640 C   0  0  0  0  0  0  0  0  0  0  0  0
   -3.6588   -2.3114    0.2985 C   0  0  0  0  0  0  0  0  0  0  0  0
    4.8107    1.3949    0.4987 C   0  0  0  0  0  0  0  0  0  0  0  0
   -4.8871    0.9600    0.6151 C   0  0  0  0  0  0  0  0  0  0  0  0
    5.2498   -0.2364   -1.2284 C   0  0  0  0  0  0  0  0  0  0  0  0
   -5.6518   -0.4710   -1.1750 C   0  0  0  0  0  0  0  0  0  0  0  0
    6.1082    1.8884    0.3628 C   0  0  0  0  0  0  0  0  0  0  0  0
   -6.0094    1.7710    0.4464 C   0  0  0  0  0  0  0  0  0  0  0  0
    6.5473    0.2573   -1.3646 C   0  0  0  0  0  0  0  0  0  0  0  0
   -6.7743    0.3399   -1.3434 C   0  0  0  0  0  0  0  0  0  0  0  0
    6.9766    1.3195   -0.5690 C   0  0  0  0  0  0  0  0  0  0  0  0
   -6.9531    1.4608   -0.5328 C   0  0  0  0  0  0  0  0  0  0  0  0
    5.5670    3.4501    2.0724 C   0  0  0  0  0  0  0  0  0  0  0  0
   -5.1627    3.1096    2.2203 C   0  0  0  0  0  0  0  0  0  0  0  0
    9.0692    1.1548   -1.6867 C   0  0  0  0  0  0  0  0  0  0  0  0
   -8.9690    1.8573   -1.7305 C   0  0  0  0  0  0  0  0  0  0  0  0
   -0.6180   -4.7250    0.9076 H   0  0  0  0  0  0  0  0  0  0  0  0
    2.0196    1.6472   -0.6412 H   0  0  0  0  0  0  0  0  0  0  0  0
   -4.6131   -2.8055    0.4343 H   0  0  0  0  0  0  0  0  0  0  0  0
    4.0990    1.7964    1.2130 H   0  0  0  0  0  0  0  0  0  0  0  0
   -4.1268    1.1513    1.3656 H   0  0  0  0  0  0  0  0  0  0  0  0
    4.9298   -1.0620   -1.8597 H   0  0  0  0  0  0  0  0  0  0  0  0
   -5.5268   -1.3374   -1.8202 H   0  0  0  0  0  0  0  0  0  0  0  0
    7.1655   -0.2327   -2.1089 H   0  0  0  0  0  0  0  0  0  0  0  0
   -7.4643    0.0386   -2.1241 H   0  0  0  0  0  0  0  0  0  0  0  0
    2.8165   -3.9278    0.7306 H   0  0  0  0  0  0  0  0  0  0  0  0
    6.0591    4.2686    2.6082 H   0  0  0  0  0  0  0  0  0  0  0  0
    5.2827    2.7056    2.8239 H   0  0  0  0  0  0  0  0  0  0  0  0
    4.6994    3.8823    1.5621 H   0  0  0  0  0  0  0  0  0  0  0  0
   -5.4529    4.0162    2.7617 H   0  0  0  0  0  0  0  0  0  0  0  0
   -4.1926    3.3154    1.7550 H   0  0  0  0  0  0  0  0  0  0  0  0
   -5.1096    2.3027    2.9592 H   0  0  0  0  0  0  0  0  0  0  0  0
   10.0421    1.6569   -1.6649 H   0  0  0  0  0  0  0  0  0  0  0  0
    9.2488    0.1033   -1.4381 H   0  0  0  0  0  0  0  0  0  0  0  0
    8.6688    1.2820   -2.6983 H   0  0  0  0  0  0  0  0  0  0  0  0
   -9.7824    2.5904   -1.7293 H   0  0  0  0  0  0  0  0  0  0  0  0
   -9.4205    0.8817   -1.5200 H   0  0  0  0  0  0  0  0  0  0  0  0
   -8.5064    1.8978   -2.7225 H   0  0  0  0  0  0  0  0  0  0  0  0
  1 11  1  0  0  0  0
  1 22  1  0  0  0  0
  2 13  1  0  0  0  0
  2 23  1  0  0  0  0
  3 15  1  0  0  0  0
  3 47  1  0  0  0  0
  4 14  2  0  0  0  0
  5 17  2  0  0  0  0
  6 28  1  0  0  0  0
  6 34  1  0  0  0  0
  7 29  1  0  0  0  0
  7 35  1  0  0  0  0
  8 32  1  0  0  0  0
  8 36  1  0  0  0  0
  9 33  1  0  0  0  0
  9 37  1  0  0  0  0
 10 11  1  0  0  0  0
 10 13  2  0  0  0  0
 10 14  1  0  0  0  0
 11 12  2  0  0  0  0
 12 15  1  0  0  0  0
 12 17  1  0  0  0  0
 13 19  1  0  0  0  0
 14 18  1  0  0  0  0
 15 19  2  0  0  0  0
 16 17  1  0  0  0  0
 16 20  1  0  0  0  0
 16 22  2  0  0  0  0
 18 21  1  0  0  0  0
 18 23  2  0  0  0  0
 19 38  1  0  0  0  0
 20 24  2  0  0  0  0
 20 26  1  0  0  0  0
 21 25  2  0  0  0  0
 21 27  1  0  0  0  0
 22 39  1  0  0  0  0
 23 40  1  0  0  0  0
 24 28  1  0  0  0  0
 24 41  1  0  0  0  0
 25 29  1  0  0  0  0
 25 42  1  0  0  0  0
 26 30  2  0  0  0  0
 26 43  1  0  0  0  0
 27 31  2  0  0  0  0
 27 44  1  0  0  0  0
 28 32  2  0  0  0  0
 29 33  2  0  0  0  0
 30 32  1  0  0  0  0
 30 45  1  0  0  0  0
 31 33  1  0  0  0  0
 31 46  1  0  0  0  0
 34 48  1  0  0  0  0
 34 49  1  0  0  0  0
 34 50  1  0  0  0  0
 35 51  1  0  0  0  0
 35 52  1  0  0  0  0
 35 53  1  0  0  0  0
 36 54  1  0  0  0  0
 36 55  1  0  0  0  0
 36 56  1  0  0  0  0
 37 57  1  0  0  0  0
 37 58  1  0  0  0  0
 37 59  1  0  0  0  0
M  END
> <PUBCHEM_COMPOUND_CID>
127051628

> <PUBCHEM_CONFORMER_RMSD>
1

> <PUBCHEM_CONFORMER_DIVERSEORDER>
3
13
15
2
16
14
10
7
8
11
5
9
6
4
12
1

> <PUBCHEM_MMFF94_PARTIAL_CHARGES>
47
1 -0.16
10 0.09
11 0.08
12 0.09
13 0.08
14 0.47
15 0.08
16 -0.01
17 0.47
18 -0.01
19 -0.15
2 -0.16
20 0.03
21 0.03
22 -0.07
23 -0.07
24 -0.15
25 -0.15
26 -0.15
27 -0.15
28 0.08
29 0.08
3 -0.53
30 -0.15
31 -0.15
32 0.08
33 0.08
34 0.28
35 0.28
36 0.28
37 0.28
38 0.15
39 0.15
4 -0.57
40 0.15
41 0.15
42 0.15
43 0.15
44 0.15
45 0.15
46 0.15
47 0.45
5 -0.57
6 -0.36
7 -0.36
8 -0.36
9 -0.36

> <PUBCHEM_EFFECTIVE_ROTOR_COUNT>
6

> <PUBCHEM_PHARMACOPHORE_FEATURES>
14
1 1 acceptor
1 2 acceptor
1 3 donor
1 4 acceptor
1 5 acceptor
1 6 acceptor
1 7 acceptor
1 8 acceptor
1 9 acceptor
6 1 11 12 16 17 22 rings
6 10 11 12 13 15 19 rings
6 2 10 13 14 18 23 rings
6 20 24 26 28 30 32 rings
6 21 25 27 29 31 33 rings

> <PUBCHEM_HEAVY_ATOM_COUNT>
37

> <PUBCHEM_ATOM_DEF_STEREO_COUNT>
0

> <PUBCHEM_ATOM_UDEF_STEREO_COUNT>
0

> <PUBCHEM_BOND_DEF_STEREO_COUNT>
0

> <PUBCHEM_BOND_UDEF_STEREO_COUNT>
0

> <PUBCHEM_ISOTOPIC_ATOM_COUNT>
0

> <PUBCHEM_COMPONENT_COUNT>
1

> <PUBCHEM_CACTVS_TAUTO_COUNT>
6

> <PUBCHEM_CONFORMER_ID>
0792A76C00000003

> <PUBCHEM_MMFF94_ENERGY>
159.4975

> <PUBCHEM_FEATURE_SELFOVERLAP>
71.13

> <PUBCHEM_SHAPE_FINGERPRINT>
10 15 17385442115924454637
10006869 2 18337381657049919966
10050765 1 18408322185555349739
10055352 69 18413673526839077649
10411042 1 17470439638809044090
10533779 1 18334002900261568109
10835480 77 18272089430993163288
10864689 126 18341331171684230088
11007060 377 18342178912139126427
11135609 187 18334850586105053245
11136131 41 17968935271648422147
11273773 42 18272371941521196449
11297010 23 18201722830347189286
11409948 41 16343438198573437380
1200032 147 18187086139741864194
12013929 2 18272937151408280192
12522641 68 18341894108310528415
13248334 5 18118682106605729362
13540713 5 18262780935246028779
13782708 43 12895072890406310835
13947947 74 18343298163648007097
14294032 229 17895186740205928238
14340393 91 16630251333178551208
14556957 393 15482125962790218168
14664723 55 18337402607695168492
14790565 3 18267870471896755787
14931854 50 18131914857862208017
14937079 2 18263928727170702810
15064981 113 17131834218412151639
15183329 4 18131350774422477137
15289351 153 18343017770997221568
15351339 4 18271523100742420360
1577012 14 18410005525588744479
15803439 3 17275105045882840903
15980000 95 17545603353670121234
16067689 134 18057056713225290833
16112460 7 18336829701732741713
17899979 129 18271815561997820038
20691028 202 18335982090422491052
21033648 144 18187640281187074023
21033648 29 18265890436249566248
21133410 127 17548126088911576792
21298829 104 18334013895324643693
21424621 283 18410857680890004690
21792965 106 17896869959823645845
22864921 47 11167676313453697772
23522609 53 17559117572115080561
23559900 14 18267592497935459342
23576562 1 17845078748770957621
24771293 8 18040713667600806567
2748736 6 18409441505423438905
3918712 181 18340473530702469993
3986486 107 17988658367884891100
4073 2 18113339692108296155
4144715 1 17976263757719098768
4169191 19 18335420141053667541
4516262 110 18335979779872043143
5104073 3 18113616789521620803
5718773 13 10159696897905598799
57303763 176 17914907448704239552
5758199 1 18409169900460967973
6328613 192 18410578374618622639
6691757 9 14634871977124992611
6712543 237 14273459167542989417
9896288 288 17823705367856073586
9953998 17 13190341284012362805

> <PUBCHEM_SHAPE_MULTIPOLES>
708.62
25.47
4.44
1.42
2.09
2.2
-0.13
-29.29
9.7
-0.25
-2.65
-0.09
-1.19
0.43

> <PUBCHEM_SHAPE_SELFOVERLAP>
1585.586

> <PUBCHEM_SHAPE_VOLUME>
376.5

> <PUBCHEM_COORDINATE_TYPE>
2
5
10

$$$$