22217363
  -OEChem-03242010103D

 51 53  0     1  0  0  0  0  0999 V2000
    0.7123    0.5379   -0.4334 O   0  0  0  0  0  0  0  0  0  0  0  0
    0.1663   -0.4865    2.2023 O   0  0  0  0  0  0  0  0  0  0  0  0
    4.6348   -1.8462    1.1171 O   0  0  0  0  0  0  0  0  0  0  0  0
    5.0456    2.2699   -1.2347 O   0  0  0  0  0  0  0  0  0  0  0  0
   -3.7195    2.4972    0.7296 O   0  0  0  0  0  0  0  0  0  0  0  0
   -4.7398   -1.7535   -1.2278 O   0  0  0  0  0  0  0  0  0  0  0  0
   -5.5816    0.7021   -0.2624 O   0  0  0  0  0  0  0  0  0  0  0  0
    0.3262   -1.3630    1.0861 C   0  0  1  0  0  0  0  0  0  0  0  0
   -0.0733   -0.6440   -0.2092 C   0  0  1  0  0  0  0  0  0  0  0  0
    1.7872   -1.7987    0.9951 C   0  0  0  0  0  0  0  0  0  0  0  0
    2.6390   -0.7141    0.3927 C   0  0  0  0  0  0  0  0  0  0  0  0
   -1.5473   -0.2838   -0.2231 C   0  0  0  0  0  0  0  0  0  0  0  0
    2.0646    0.3699   -0.2832 C   0  0  0  0  0  0  0  0  0  0  0  0
    4.0349   -0.7942    0.4890 C   0  0  0  0  0  0  0  0  0  0  0  0
    2.8727    1.3771   -0.8173 C   0  0  0  0  0  0  0  0  0  0  0  0
   -2.4820   -1.1903   -0.7233 C   0  0  0  0  0  0  0  0  0  0  0  0
   -1.9675    0.9537    0.2640 C   0  0  0  0  0  0  0  0  0  0  0  0
    4.8409    0.2053   -0.0573 C   0  0  0  0  0  0  0  0  0  0  0  0
    4.2596    1.2923   -0.7064 C   0  0  0  0  0  0  0  0  0  0  0  0
   -3.3224    1.2850    0.2510 C   0  0  0  0  0  0  0  0  0  0  0  0
   -3.8369   -0.8591   -0.7363 C   0  0  0  0  0  0  0  0  0  0  0  0
   -4.2571    0.3784   -0.2492 C   0  0  0  0  0  0  0  0  0  0  0  0
    4.9583   -2.9789    0.3146 C   0  0  0  0  0  0  0  0  0  0  0  0
    6.4566    2.1202   -1.0852 C   0  0  0  0  0  0  0  0  0  0  0  0
   -2.7004    3.3646    1.2225 C   0  0  0  0  0  0  0  0  0  0  0  0
   -4.2270   -2.9953   -1.7061 C   0  0  0  0  0  0  0  0  0  0  0  0
   -6.3441    0.3542    0.8909 C   0  0  0  0  0  0  0  0  0  0  0  0
   -0.3119   -2.2363    1.2654 H   0  0  0  0  0  0  0  0  0  0  0  0
    0.1096   -1.3067   -1.0680 H   0  0  0  0  0  0  0  0  0  0  0  0
    2.1596   -2.0563    1.9934 H   0  0  0  0  0  0  0  0  0  0  0  0
    1.8557   -2.6851    0.3537 H   0  0  0  0  0  0  0  0  0  0  0  0
    2.4215    2.2252   -1.3267 H   0  0  0  0  0  0  0  0  0  0  0  0
   -2.0967   -2.1375   -1.0852 H   0  0  0  0  0  0  0  0  0  0  0  0
   -1.2064    1.6196    0.6545 H   0  0  0  0  0  0  0  0  0  0  0  0
    0.4084   -0.9834    3.0023 H   0  0  0  0  0  0  0  0  0  0  0  0
    5.9128    0.0818    0.0574 H   0  0  0  0  0  0  0  0  0  0  0  0
    5.3370   -3.7667    0.9716 H   0  0  0  0  0  0  0  0  0  0  0  0
    5.7403   -2.7202   -0.4063 H   0  0  0  0  0  0  0  0  0  0  0  0
    4.0775   -3.3576   -0.2123 H   0  0  0  0  0  0  0  0  0  0  0  0
    6.9257    2.9873   -1.5617 H   0  0  0  0  0  0  0  0  0  0  0  0
    6.8247    1.2307   -1.6079 H   0  0  0  0  0  0  0  0  0  0  0  0
    6.7538    2.1356   -0.0311 H   0  0  0  0  0  0  0  0  0  0  0  0
   -3.1945    4.2822    1.5590 H   0  0  0  0  0  0  0  0  0  0  0  0
   -2.1951    2.9389    2.0962 H   0  0  0  0  0  0  0  0  0  0  0  0
   -1.9988    3.6545    0.4328 H   0  0  0  0  0  0  0  0  0  0  0  0
   -5.0818   -3.5816   -2.0594 H   0  0  0  0  0  0  0  0  0  0  0  0
   -3.7559   -3.5737   -0.9040 H   0  0  0  0  0  0  0  0  0  0  0  0
   -3.5627   -2.8541   -2.5655 H   0  0  0  0  0  0  0  0  0  0  0  0
   -6.3364   -0.7294    1.0457 H   0  0  0  0  0  0  0  0  0  0  0  0
   -5.9545    0.8627    1.7784 H   0  0  0  0  0  0  0  0  0  0  0  0
   -7.3763    0.6763    0.7290 H   0  0  0  0  0  0  0  0  0  0  0  0
  1  9  1  0  0  0  0
  1 13  1  0  0  0  0
  2  8  1  0  0  0  0
  2 35  1  0  0  0  0
  3 14  1  0  0  0  0
  3 23  1  0  0  0  0
  4 19  1  0  0  0  0
  4 24  1  0  0  0  0
  5 20  1  0  0  0  0
  5 25  1  0  0  0  0
  6 21  1  0  0  0  0
  6 26  1  0  0  0  0
  7 22  1  0  0  0  0
  7 27  1  0  0  0  0
  8  9  1  0  0  0  0
  8 10  1  0  0  0  0
  8 28  1  0  0  0  0
  9 12  1  0  0  0  0
  9 29  1  0  0  0  0
 10 11  1  0  0  0  0
 10 30  1  0  0  0  0
 10 31  1  0  0  0  0
 11 13  2  0  0  0  0
 11 14  1  0  0  0  0
 12 16  2  0  0  0  0
 12 17  1  0  0  0  0
 13 15  1  0  0  0  0
 14 18  2  0  0  0  0
 15 19  2  0  0  0  0
 15 32  1  0  0  0  0
 16 21  1  0  0  0  0
 16 33  1  0  0  0  0
 17 20  2  0  0  0  0
 17 34  1  0  0  0  0
 18 19  1  0  0  0  0
 18 36  1  0  0  0  0
 20 22  1  0  0  0  0
 21 22  2  0  0  0  0
 23 37  1  0  0  0  0
 23 38  1  0  0  0  0
 23 39  1  0  0  0  0
 24 40  1  0  0  0  0
 24 41  1  0  0  0  0
 24 42  1  0  0  0  0
 25 43  1  0  0  0  0
 25 44  1  0  0  0  0
 25 45  1  0  0  0  0
 26 46  1  0  0  0  0
 26 47  1  0  0  0  0
 26 48  1  0  0  0  0
 27 49  1  0  0  0  0
 27 50  1  0  0  0  0
 27 51  1  0  0  0  0
M  END
> <PUBCHEM_COMPOUND_CID>
22217363

> <PUBCHEM_CONFORMER_RMSD>
0.8

> <PUBCHEM_CONFORMER_DIVERSEORDER>
1
17
5
4
16
6
7
12
14
3
9
21
15
19
10
11
2
8
20
18
13

> <PUBCHEM_MMFF94_PARTIAL_CHARGES>
32
1 -0.36
10 0.14
11 -0.14
12 -0.14
13 0.08
14 0.08
15 -0.15
16 -0.15
17 -0.15
18 -0.15
19 0.08
2 -0.68
20 0.08
21 0.08
22 0.08
23 0.28
24 0.28
25 0.28
26 0.28
27 0.28
3 -0.36
32 0.15
33 0.15
34 0.15
35 0.4
36 0.15
4 -0.36
5 -0.36
6 -0.36
7 -0.36
8 0.28
9 0.42

> <PUBCHEM_EFFECTIVE_ROTOR_COUNT>
6.8

> <PUBCHEM_PHARMACOPHORE_FEATURES>
11
1 1 acceptor
1 2 acceptor
1 2 donor
1 3 acceptor
1 4 acceptor
1 5 acceptor
1 6 acceptor
1 7 acceptor
6 1 8 9 10 11 13 rings
6 11 13 14 15 18 19 rings
6 12 16 17 20 21 22 rings

> <PUBCHEM_HEAVY_ATOM_COUNT>
27

> <PUBCHEM_ATOM_DEF_STEREO_COUNT>
2

> <PUBCHEM_ATOM_UDEF_STEREO_COUNT>
0

> <PUBCHEM_BOND_DEF_STEREO_COUNT>
0

> <PUBCHEM_BOND_UDEF_STEREO_COUNT>
0

> <PUBCHEM_ISOTOPIC_ATOM_COUNT>
0

> <PUBCHEM_COMPONENT_COUNT>
1

> <PUBCHEM_CACTVS_TAUTO_COUNT>
1

> <PUBCHEM_CONFORMER_ID>
0153029300000001

> <PUBCHEM_MMFF94_ENERGY>
127.7152

> <PUBCHEM_FEATURE_SELFOVERLAP>
55.867

> <PUBCHEM_SHAPE_FINGERPRINT>
10595046 47 18411417340956525486
11796584 16 17703790319006261982
12107183 9 17906734704916414080
12236239 1 18335420149775366789
12403259 415 16877937217960843159
12596602 18 18113903745487919769
12616971 3 18334571326508917775
12788726 201 18271806877721341535
13167823 11 18410289190191829694
13533116 47 18408885127086329192
13631057 29 17972035009971015803
14341114 176 18187372012712078035
14739800 52 18200581606055329416
15081414 286 17749108907153513388
15250474 111 18340756109295903942
15420108 30 16756071460239596592
17818456 19 18056196865478028656
17844677 252 18337115544675289962
18335252 98 18041851726370484523
20612939 158 18187082828395652046
21033648 144 17676483969041491046
21033648 29 15647047149210920535
21033650 10 18128283154187472052
21065198 48 18410573976777969996
21267235 1 18335707078886160131
220451 1 18342178890189458015
23522609 53 18199771231283009001
23557571 272 17560798775672943273
23559900 14 17704072936180190941
23569943 247 17466784884070802602
25147074 1 18335411392400652610
3004659 81 18272933778851533814
335352 9 18186526502083706630
34797466 226 16845290579155192064
3633792 109 18115294572236839655
4073 2 17822017552913219314
469060 322 14851891421699865171
474 4 17968100845370148764
5104073 3 18335417971652097986
5912855 24 18338238279519140667
6058803 2 18337945680302326571
633830 44 17968096387178206578
67856867 119 18411128169646489568
7495541 125 17703498982441215499
9981440 41 17687180211641436920

> <PUBCHEM_SHAPE_MULTIPOLES>
514.56
14.62
3.1
1.34
1.71
0.21
0.15
2.17
-2.77
0.33
-0.08
-0.15
-0.25
-4.08

> <PUBCHEM_SHAPE_SELFOVERLAP>
1104.153

> <PUBCHEM_SHAPE_VOLUME>
285.3

> <PUBCHEM_COORDINATE_TYPE>
2
5
10

$$$$