8
 OpenBabel03292022243D

 91 94  0  0  1  0  0  0  0  0999 V2000
    1.2664    0.0146   -0.3586 C   0  0  0  0  0  0  0  0  0  0  0  0
    2.7304   -0.0678   -0.0462 C   0  0  0  0  0  0  0  0  0  0  0  0
    3.2625    0.5699    0.8530 O   0  0  0  0  0  0  0  0  0  0  0  0
    3.3598   -0.9168   -0.9637 O   0  0  0  0  0  0  0  0  0  0  0  0
    4.7511   -1.1243   -0.8643 C   0  0  0  0  0  0  0  0  0  0  0  0
    5.4807   -1.1875   -2.0508 C   0  0  0  0  0  0  0  0  0  0  0  0
    6.8818   -1.3155   -2.0091 C   0  0  0  0  0  0  0  0  0  0  0  0
    7.4578   -1.3661   -3.3226 O   0  0  0  0  0  0  0  0  0  0  0  0
    8.6837   -0.9526   -3.8687 C   0  0  0  0  0  0  0  0  0  0  0  0
    8.6340   -1.1287   -5.3597 C   0  0  0  0  0  0  0  0  0  0  0  0
    9.6279   -0.4599   -3.2741 O   0  0  0  0  0  0  0  0  0  0  0  0
    7.5678   -1.3827   -0.7871 C   0  0  0  0  0  0  0  0  0  0  0  0
    6.7901   -1.3233    0.3890 C   0  0  0  0  0  0  0  0  0  0  0  0
    5.3961   -1.2600    0.3544 C   0  0  0  0  0  0  0  0  0  0  0  0
    7.3124   -1.1568    1.6536 O   0  0  0  0  0  0  0  0  0  0  0  0
    8.6645   -0.6537    1.7005 C   0  0  2  0  0  0  0  0  0  0  0  0
    8.7542    0.8725    1.4687 C   0  0  0  0  0  0  0  0  0  0  0  0
    9.7899    1.6159    2.0599 C   0  0  0  0  0  0  0  0  0  0  0  0
    9.9391    2.9844    1.7748 C   0  0  0  0  0  0  0  0  0  0  0  0
   10.8702    3.8246    2.4508 O   0  0  0  0  0  0  0  0  0  0  0  0
   11.9273    3.3959    3.2544 C   0  0  0  0  0  0  0  0  0  0  0  0
   12.4925    4.5842    3.9839 C   0  0  0  0  0  0  0  0  0  0  0  0
   12.3563    2.2638    3.3615 O   0  0  0  0  0  0  0  0  0  0  0  0
    9.0828    3.6403    0.8734 C   0  0  0  0  0  0  0  0  0  0  0  0
    9.3906    4.9807    0.5790 O   0  0  0  0  0  0  0  0  0  0  0  0
    9.3423    5.4588   -0.7354 C   0  0  0  0  0  0  0  0  0  0  0  0
    9.8592    6.8715   -0.7541 C   0  0  0  0  0  0  0  0  0  0  0  0
    9.0011    4.8488   -1.7340 O   0  0  0  0  0  0  0  0  0  0  0  0
    7.9793    2.9521    0.3930 C   0  0  0  0  0  0  0  0  0  0  0  0
    6.9669    3.4744   -0.4345 O   0  0  0  0  0  0  0  0  0  0  0  0
    6.3277    4.6642   -0.1108 C   0  0  0  0  0  0  0  0  0  0  0  0
    5.2242    4.9211   -1.0961 C   0  0  0  0  0  0  0  0  0  0  0  0
    6.6137    5.4272    0.8075 O   0  0  0  0  0  0  0  0  0  0  0  0
    7.8258    1.5901    0.6879 C   0  0  0  0  0  0  0  0  0  0  0  0
    9.5321   -1.5543    0.7931 C   0  0  2  0  0  0  0  0  0  0  0  0
   10.9336   -1.2533    0.8338 O   0  0  0  0  0  0  0  0  0  0  0  0
   11.6776   -1.7691    1.8393 C   0  0  0  0  0  0  0  0  0  0  0  0
   11.2703   -2.4043    2.7995 O   0  0  0  0  0  0  0  0  0  0  0  0
   13.0715   -1.3001    1.6253 C   0  0  0  0  0  0  0  0  0  0  0  0
   13.5844   -1.1530    0.3309 C   0  0  0  0  0  0  0  0  0  0  0  0
   14.8281   -0.5450    0.1278 C   0  0  0  0  0  0  0  0  0  0  0  0
   15.3549   -0.4293   -1.1757 O   0  0  0  0  0  0  0  0  0  0  0  0
   15.2219   -1.4909   -2.0711 C   0  0  0  0  0  0  0  0  0  0  0  0
   15.7269   -1.0768   -3.4204 C   0  0  0  0  0  0  0  0  0  0  0  0
   14.7734   -2.6034   -1.8249 O   0  0  0  0  0  0  0  0  0  0  0  0
   15.5097    0.0272    1.2099 C   0  0  0  0  0  0  0  0  0  0  0  0
   16.6667    0.8155    1.0596 O   0  0  0  0  0  0  0  0  0  0  0  0
   16.7883    1.8576    0.1400 C   0  0  0  0  0  0  0  0  0  0  0  0
   18.0645    2.6028    0.4246 C   0  0  0  0  0  0  0  0  0  0  0  0
   16.0080    2.1564   -0.7533 O   0  0  0  0  0  0  0  0  0  0  0  0
   15.0317   -0.2073    2.5088 C   0  0  0  0  0  0  0  0  0  0  0  0
   15.5764    0.3325    3.7116 O   0  0  0  0  0  0  0  0  0  0  0  0
   16.8904    0.6835    4.0392 C   0  0  0  0  0  0  0  0  0  0  0  0
   16.9062    1.2655    5.4240 C   0  0  0  0  0  0  0  0  0  0  0  0
   17.8791    0.5695    3.3329 O   0  0  0  0  0  0  0  0  0  0  0  0
   13.8314   -0.9005    2.7223 C   0  0  0  0  0  0  0  0  0  0  0  0
    9.0617   -1.4149   -0.6554 C   0  0  0  0  0  0  0  0  0  0  0  0
    0.7478    0.4829    0.4846 H   0  0  0  0  0  0  0  0  0  0  0  0
    0.8481   -0.9849   -0.4966 H   0  0  0  0  0  0  0  0  0  0  0  0
    1.1161    0.6268   -1.2505 H   0  0  0  0  0  0  0  0  0  0  0  0
    4.9713   -1.1068   -3.0070 H   0  0  0  0  0  0  0  0  0  0  0  0
    8.2192   -2.1063   -5.6167 H   0  0  0  0  0  0  0  0  0  0  0  0
    9.6491   -1.0762   -5.7656 H   0  0  0  0  0  0  0  0  0  0  0  0
    8.0326   -0.3300   -5.8017 H   0  0  0  0  0  0  0  0  0  0  0  0
    4.8493   -1.2168    1.2928 H   0  0  0  0  0  0  0  0  0  0  0  0
    8.9838   -0.8134    2.7387 H   0  0  0  0  0  0  0  0  0  0  0  0
   10.4609    1.1149    2.7513 H   0  0  0  0  0  0  0  0  0  0  0  0
   11.6941    5.1212    4.5025 H   0  0  0  0  0  0  0  0  0  0  0  0
   13.0097    5.2420    3.2822 H   0  0  0  0  0  0  0  0  0  0  0  0
   13.2049    4.2321    4.7366 H   0  0  0  0  0  0  0  0  0  0  0  0
    9.7364    7.3424    0.2256 H   0  0  0  0  0  0  0  0  0  0  0  0
    9.2907    7.4584   -1.4802 H   0  0  0  0  0  0  0  0  0  0  0  0
   10.9178    6.8610   -1.0252 H   0  0  0  0  0  0  0  0  0  0  0  0
    4.8419    3.9781   -1.4974 H   0  0  0  0  0  0  0  0  0  0  0  0
    5.5910    5.5493   -1.9090 H   0  0  0  0  0  0  0  0  0  0  0  0
    4.3968    5.4171   -0.5807 H   0  0  0  0  0  0  0  0  0  0  0  0
    6.9431    1.1143    0.2801 H   0  0  0  0  0  0  0  0  0  0  0  0
    9.3831   -2.6079    1.0904 H   0  0  0  0  0  0  0  0  0  0  0  0
   12.9975   -1.4971   -0.5179 H   0  0  0  0  0  0  0  0  0  0  0  0
   16.7834   -0.8080   -3.3579 H   0  0  0  0  0  0  0  0  0  0  0  0
   15.1328   -0.2439   -3.8039 H   0  0  0  0  0  0  0  0  0  0  0  0
   15.6244   -1.9190   -4.1126 H   0  0  0  0  0  0  0  0  0  0  0  0
   18.1292    2.8318    1.4922 H   0  0  0  0  0  0  0  0  0  0  0  0
   18.0586    3.5552   -0.1150 H   0  0  0  0  0  0  0  0  0  0  0  0
   18.9278    2.0149    0.1055 H   0  0  0  0  0  0  0  0  0  0  0  0
   16.0236    0.9523    5.9893 H   0  0  0  0  0  0  0  0  0  0  0  0
   16.9297    2.3560    5.3652 H   0  0  0  0  0  0  0  0  0  0  0  0
   17.7871    0.8965    5.9559 H   0  0  0  0  0  0  0  0  0  0  0  0
   13.4567   -1.0521    3.7318 H   0  0  0  0  0  0  0  0  0  0  0  0
    9.4852   -2.2309   -1.2528 H   0  0  0  0  0  0  0  0  0  0  0  0
    9.4727   -0.4729   -1.0292 H   0  0  0  0  0  0  0  0  0  0  0  0
  1  2  1  0  0  0  0
  1 58  1  0  0  0  0
  1 59  1  0  0  0  0
  1 60  1  0  0  0  0
  2  3  2  0  0  0  0
  2  4  1  0  0  0  0
  4  5  1  0  0  0  0
  5  6  1  0  0  0  0
  5 14  2  0  0  0  0
  6  7  2  0  0  0  0
  6 61  1  0  0  0  0
  7  8  1  0  0  0  0
  7 12  1  0  0  0  0
  8  9  1  0  0  0  0
  9 10  1  0  0  0  0
  9 11  2  0  0  0  0
 10 62  1  0  0  0  0
 10 63  1  0  0  0  0
 10 64  1  0  0  0  0
 12 13  2  0  0  0  0
 12 57  1  0  0  0  0
 13 14  1  0  0  0  0
 13 15  1  0  0  0  0
 14 65  1  0  0  0  0
 15 16  1  0  0  0  0
 16 17  1  0  0  0  0
 16 35  1  0  0  0  0
 16 66  1  1  0  0  0
 17 18  1  0  0  0  0
 17 34  2  0  0  0  0
 18 19  2  0  0  0  0
 18 67  1  0  0  0  0
 19 20  1  0  0  0  0
 19 24  1  0  0  0  0
 20 21  1  0  0  0  0
 21 22  1  0  0  0  0
 21 23  2  0  0  0  0
 22 68  1  0  0  0  0
 22 69  1  0  0  0  0
 22 70  1  0  0  0  0
 24 25  1  0  0  0  0
 24 29  2  0  0  0  0
 25 26  1  0  0  0  0
 26 27  1  0  0  0  0
 26 28  2  0  0  0  0
 27 71  1  0  0  0  0
 27 72  1  0  0  0  0
 27 73  1  0  0  0  0
 29 30  1  0  0  0  0
 29 34  1  0  0  0  0
 30 31  1  0  0  0  0
 31 32  1  0  0  0  0
 31 33  2  0  0  0  0
 32 74  1  0  0  0  0
 32 75  1  0  0  0  0
 32 76  1  0  0  0  0
 34 77  1  0  0  0  0
 35 57  1  0  0  0  0
 35 36  1  0  0  0  0
 35 78  1  1  0  0  0
 36 37  1  0  0  0  0
 37 38  2  0  0  0  0
 37 39  1  0  0  0  0
 39 40  1  0  0  0  0
 39 56  2  0  0  0  0
 40 41  2  0  0  0  0
 40 79  1  0  0  0  0
 41 42  1  0  0  0  0
 41 46  1  0  0  0  0
 42 43  1  0  0  0  0
 43 44  1  0  0  0  0
 43 45  2  0  0  0  0
 44 80  1  0  0  0  0
 44 81  1  0  0  0  0
 44 82  1  0  0  0  0
 46 47  1  0  0  0  0
 46 51  2  0  0  0  0
 47 48  1  0  0  0  0
 48 49  1  0  0  0  0
 48 50  2  0  0  0  0
 49 83  1  0  0  0  0
 49 84  1  0  0  0  0
 49 85  1  0  0  0  0
 51 52  1  0  0  0  0
 51 56  1  0  0  0  0
 52 53  1  0  0  0  0
 53 54  1  0  0  0  0
 53 55  2  0  0  0  0
 54 86  1  0  0  0  0
 54 87  1  0  0  0  0
 54 88  1  0  0  0  0
 56 89  1  0  0  0  0
 57 90  1  0  0  0  0
 57 91  1  0  0  0  0
M  END
>  <Energy>
179.817

$$$$