71494857
  -OEChem-03242010103D

 67 70  0     1  0  0  0  0  0999 V2000
    1.2897   -1.6392   -0.6679 O   0  0  0  0  0  0  0  0  0  0  0  0
    0.1364    0.6514    0.6431 O   0  0  0  0  0  0  0  0  0  0  0  0
    4.7665    0.5649    1.8866 O   0  0  0  0  0  0  0  0  0  0  0  0
    5.6425   -1.1485   -2.4649 O   0  0  0  0  0  0  0  0  0  0  0  0
   -3.3393   -1.4035   -2.4994 O   0  0  0  0  0  0  0  0  0  0  0  0
   -3.7404   -4.0038    1.5024 O   0  0  0  0  0  0  0  0  0  0  0  0
   -4.8538   -3.0164   -0.8335 O   0  0  0  0  0  0  0  0  0  0  0  0
   -0.5574    1.6772    2.5836 O   0  0  0  0  0  0  0  0  0  0  0  0
   -2.4200    6.0598    0.7195 O   0  0  0  0  0  0  0  0  0  0  0  0
    0.5880   -0.4794    1.3897 C   0  0  1  0  0  0  0  0  0  0  0  0
    0.5024   -1.7466    0.5291 C   0  0  1  0  0  0  0  0  0  0  0  0
    2.0367   -0.2527    1.8170 C   0  0  0  0  0  0  0  0  0  0  0  0
    2.9836   -0.5032    0.6745 C   0  0  0  0  0  0  0  0  0  0  0  0
   -0.9312   -2.0857    0.1648 C   0  0  0  0  0  0  0  0  0  0  0  0
    2.5670   -1.1779   -0.4799 C   0  0  0  0  0  0  0  0  0  0  0  0
    4.3143   -0.0735    0.7693 C   0  0  0  0  0  0  0  0  0  0  0  0
    3.4566   -1.3826   -1.5378 C   0  0  0  0  0  0  0  0  0  0  0  0
   -1.6913   -2.8978    1.0065 C   0  0  0  0  0  0  0  0  0  0  0  0
   -1.4886   -1.5859   -1.0121 C   0  0  0  0  0  0  0  0  0  0  0  0
    5.2051   -0.2911   -0.2824 C   0  0  0  0  0  0  0  0  0  0  0  0
    4.7752   -0.9416   -1.4368 C   0  0  0  0  0  0  0  0  0  0  0  0
   -2.8063   -1.8977   -1.3471 C   0  0  0  0  0  0  0  0  0  0  0  0
   -3.0089   -3.2100    0.6714 C   0  0  0  0  0  0  0  0  0  0  0  0
   -0.4160    1.6567    1.3708 C   0  0  0  0  0  0  0  0  0  0  0  0
   -3.5665   -2.7099   -0.5053 C   0  0  0  0  0  0  0  0  0  0  0  0
   -0.8428    2.7669    0.4822 C   0  0  0  0  0  0  0  0  0  0  0  0
    5.3057   -0.2514    2.9235 C   0  0  0  0  0  0  0  0  0  0  0  0
   -1.4384    3.9054    1.0251 C   0  0  0  0  0  0  0  0  0  0  0  0
   -0.6482    2.6714   -0.8959 C   0  0  0  0  0  0  0  0  0  0  0  0
    6.9766   -0.6715   -2.2948 C   0  0  0  0  0  0  0  0  0  0  0  0
   -2.4950   -0.5814   -3.3031 C   0  0  0  0  0  0  0  0  0  0  0  0
   -3.0948   -4.4728    2.6847 C   0  0  0  0  0  0  0  0  0  0  0  0
   -1.8393    4.9485    0.1902 C   0  0  0  0  0  0  0  0  0  0  0  0
   -5.8691   -2.1333   -0.3622 C   0  0  0  0  0  0  0  0  0  0  0  0
   -1.0493    3.7143   -1.7308 C   0  0  0  0  0  0  0  0  0  0  0  0
   -1.6446    4.8530   -1.1878 C   0  0  0  0  0  0  0  0  0  0  0  0
   -2.8050    7.0878   -0.1921 C   0  0  0  0  0  0  0  0  0  0  0  0
   -0.0360   -0.6151    2.2832 H   0  0  0  0  0  0  0  0  0  0  0  0
    0.9081   -2.6007    1.0914 H   0  0  0  0  0  0  0  0  0  0  0  0
    2.1636    0.7701    2.1896 H   0  0  0  0  0  0  0  0  0  0  0  0
    2.2832   -0.9524    2.6241 H   0  0  0  0  0  0  0  0  0  0  0  0
    3.1241   -1.8921   -2.4390 H   0  0  0  0  0  0  0  0  0  0  0  0
   -1.2055   -3.2540    1.9086 H   0  0  0  0  0  0  0  0  0  0  0  0
   -0.8640   -0.9485   -1.6275 H   0  0  0  0  0  0  0  0  0  0  0  0
    6.2184    0.0714   -0.1435 H   0  0  0  0  0  0  0  0  0  0  0  0
    5.5307    0.3890    3.7808 H   0  0  0  0  0  0  0  0  0  0  0  0
    6.2344   -0.7238    2.5880 H   0  0  0  0  0  0  0  0  0  0  0  0
    4.5913   -1.0176    3.2384 H   0  0  0  0  0  0  0  0  0  0  0  0
   -1.5963    3.9936    2.0972 H   0  0  0  0  0  0  0  0  0  0  0  0
   -0.1887    1.8043   -1.3617 H   0  0  0  0  0  0  0  0  0  0  0  0
    7.5271   -0.9195   -3.2083 H   0  0  0  0  0  0  0  0  0  0  0  0
    7.4838   -1.1807   -1.4683 H   0  0  0  0  0  0  0  0  0  0  0  0
    7.0043    0.4186   -2.1913 H   0  0  0  0  0  0  0  0  0  0  0  0
   -1.6265   -1.1352   -3.6760 H   0  0  0  0  0  0  0  0  0  0  0  0
   -3.0788   -0.2811   -4.1795 H   0  0  0  0  0  0  0  0  0  0  0  0
   -2.2124    0.3390   -2.7811 H   0  0  0  0  0  0  0  0  0  0  0  0
   -2.8218   -3.6470    3.3505 H   0  0  0  0  0  0  0  0  0  0  0  0
   -2.2429   -5.1203    2.4502 H   0  0  0  0  0  0  0  0  0  0  0  0
   -3.8214   -5.0885    3.2252 H   0  0  0  0  0  0  0  0  0  0  0  0
   -6.8368   -2.5101   -0.7046 H   0  0  0  0  0  0  0  0  0  0  0  0
   -5.7229   -1.1268   -0.7671 H   0  0  0  0  0  0  0  0  0  0  0  0
   -5.8740   -2.1004    0.7319 H   0  0  0  0  0  0  0  0  0  0  0  0
   -0.8979    3.6389   -2.8038 H   0  0  0  0  0  0  0  0  0  0  0  0
   -1.9319    5.6248   -1.8937 H   0  0  0  0  0  0  0  0  0  0  0  0
   -3.2492    7.8948    0.3998 H   0  0  0  0  0  0  0  0  0  0  0  0
   -3.5761    6.7404   -0.8881 H   0  0  0  0  0  0  0  0  0  0  0  0
   -1.9381    7.5115   -0.7103 H   0  0  0  0  0  0  0  0  0  0  0  0
  1 11  1  0  0  0  0
  1 15  1  0  0  0  0
  2 10  1  0  0  0  0
  2 24  1  0  0  0  0
  3 16  1  0  0  0  0
  3 27  1  0  0  0  0
  4 21  1  0  0  0  0
  4 30  1  0  0  0  0
  5 22  1  0  0  0  0
  5 31  1  0  0  0  0
  6 23  1  0  0  0  0
  6 32  1  0  0  0  0
  7 25  1  0  0  0  0
  7 34  1  0  0  0  0
  8 24  2  0  0  0  0
  9 33  1  0  0  0  0
  9 37  1  0  0  0  0
 10 11  1  0  0  0  0
 10 12  1  0  0  0  0
 10 38  1  0  0  0  0
 11 14  1  0  0  0  0
 11 39  1  0  0  0  0
 12 13  1  0  0  0  0
 12 40  1  0  0  0  0
 12 41  1  0  0  0  0
 13 15  2  0  0  0  0
 13 16  1  0  0  0  0
 14 18  2  0  0  0  0
 14 19  1  0  0  0  0
 15 17  1  0  0  0  0
 16 20  2  0  0  0  0
 17 21  2  0  0  0  0
 17 42  1  0  0  0  0
 18 23  1  0  0  0  0
 18 43  1  0  0  0  0
 19 22  2  0  0  0  0
 19 44  1  0  0  0  0
 20 21  1  0  0  0  0
 20 45  1  0  0  0  0
 22 25  1  0  0  0  0
 23 25  2  0  0  0  0
 24 26  1  0  0  0  0
 26 28  2  0  0  0  0
 26 29  1  0  0  0  0
 27 46  1  0  0  0  0
 27 47  1  0  0  0  0
 27 48  1  0  0  0  0
 28 33  1  0  0  0  0
 28 49  1  0  0  0  0
 29 35  2  0  0  0  0
 29 50  1  0  0  0  0
 30 51  1  0  0  0  0
 30 52  1  0  0  0  0
 30 53  1  0  0  0  0
 31 54  1  0  0  0  0
 31 55  1  0  0  0  0
 31 56  1  0  0  0  0
 32 57  1  0  0  0  0
 32 58  1  0  0  0  0
 32 59  1  0  0  0  0
 33 36  2  0  0  0  0
 34 60  1  0  0  0  0
 34 61  1  0  0  0  0
 34 62  1  0  0  0  0
 35 36  1  0  0  0  0
 35 63  1  0  0  0  0
 36 64  1  0  0  0  0
 37 65  1  0  0  0  0
 37 66  1  0  0  0  0
 37 67  1  0  0  0  0
M  END
> <PUBCHEM_COMPOUND_CID>
71494857

> <PUBCHEM_CONFORMER_RMSD>
1.2

> <PUBCHEM_CONFORMER_DIVERSEORDER>
3
17
21
15
19
18
25
14
4
26
12
6
8
16
11
9
5
20
23
10
1
13
22
24
7
2

> <PUBCHEM_MMFF94_PARTIAL_CHARGES>
45
1 -0.36
10 0.28
11 0.42
12 0.14
13 -0.14
14 -0.14
15 0.08
16 0.08
17 -0.15
18 -0.15
19 -0.15
2 -0.43
20 -0.15
21 0.08
22 0.08
23 0.08
24 0.63
25 0.08
26 0.09
27 0.28
28 -0.15
29 -0.15
3 -0.36
30 0.28
31 0.28
32 0.28
33 0.08
34 0.28
35 -0.15
36 -0.15
37 0.28
4 -0.36
42 0.15
43 0.15
44 0.15
45 0.15
49 0.15
5 -0.36
50 0.15
6 -0.36
63 0.15
64 0.15
7 -0.36
8 -0.57
9 -0.36

> <PUBCHEM_EFFECTIVE_ROTOR_COUNT>
10.8

> <PUBCHEM_PHARMACOPHORE_FEATURES>
12
1 1 acceptor
1 3 acceptor
1 4 acceptor
1 5 acceptor
1 6 acceptor
1 7 acceptor
1 8 acceptor
1 9 acceptor
6 1 10 11 12 13 15 rings
6 13 15 16 17 20 21 rings
6 14 18 19 22 23 25 rings
6 26 28 29 33 35 36 rings

> <PUBCHEM_HEAVY_ATOM_COUNT>
37

> <PUBCHEM_ATOM_DEF_STEREO_COUNT>
2

> <PUBCHEM_ATOM_UDEF_STEREO_COUNT>
0

> <PUBCHEM_BOND_DEF_STEREO_COUNT>
0

> <PUBCHEM_BOND_UDEF_STEREO_COUNT>
0

> <PUBCHEM_ISOTOPIC_ATOM_COUNT>
0

> <PUBCHEM_COMPONENT_COUNT>
1

> <PUBCHEM_CACTVS_TAUTO_COUNT>
1

> <PUBCHEM_CONFORMER_ID>
0442ECC900000003

> <PUBCHEM_MMFF94_ENERGY>
166.7347

> <PUBCHEM_FEATURE_SELFOVERLAP>
60.944

> <PUBCHEM_SHAPE_FINGERPRINT>
10764073 3 14042976215369813038
10815517 723 18269855167720819881
11505856 67 18262816076741778228
11991303 11 18123767356319737078
12156800 1 17485409713285528565
12160290 23 18200026231648290458
12741549 16 18126268969254968211
12788726 201 18336253566250950247
13540713 4 17846210017908685242
14294032 229 18266754475741892840
15198563 99 18339375118301030644
15219462 58 18340198614731553046
15444296 121 18264513792025977355
15484559 13 17264963992552171676
16988056 13 18123455332021671021
1813 80 18128260175806541770
18365409 1 18267871584293994141
19319366 153 17190637010978584897
21033650 10 18339912711215662702
21285901 2 18131067177711037734
21304303 282 18048569578648002898
21365058 113 18196664114396432543
21772528 278 18051422764020231605
22182313 1 17703498931903849730
23559900 14 17099442816886897687
24771750 20 16823065312983065892
4058900 60 17405723475350886048
4353968 344 18267889318909947620
437795 70 17914867951836937453
44802255 64 15956195592548552959
469060 322 18334579027374535289
5080951 261 17774155687629592662
5081480 168 18194948867772240327
6086070 43 17973417057743849595
9658208 31 18126563410711772592

> <PUBCHEM_SHAPE_MULTIPOLES>
708.62
11.09
8.31
2.79
16.84
15.79
-0.32
-7.04
-3.89
-17.96
1.83
1.64
-1.14
1.23

> <PUBCHEM_SHAPE_SELFOVERLAP>
1532.482

> <PUBCHEM_SHAPE_VOLUME>
391.2

> <PUBCHEM_COORDINATE_TYPE>
2
5
10

$$$$