9
 OpenBabel03292022243D

199199  0  0  1  0  0  0  0  0999 V2000
    9.9739   -6.7448   -0.7781 C   0  0  0  0  0  0  0  0  0  0  0  0
    9.3017   -5.6145   -0.0943 C   0  0  0  0  0  0  0  0  0  0  0  0
    8.0171   -5.6525    0.2687 C   0  0  0  0  0  0  0  0  0  0  0  0
    7.2952   -4.5346    0.9217 C   0  0  0  0  0  0  0  0  0  0  0  0
    8.1099   -3.3483    1.5491 C   0  0  1  0  0  0  0  0  0  0  0  0
    6.8932   -2.4277    1.9875 C   0  0  0  0  0  0  0  0  0  0  0  0
    9.1190   -3.7895    2.8054 C   0  0  1  0  0  0  0  0  0  0  0  0
    8.5819   -4.9472    3.5051 O   0  0  0  0  0  0  0  0  0  0  0  0
   10.6383   -3.1511    3.5941 C   0  0  1  0  0  0  0  0  0  0  0  0
   12.4979   -3.3480    3.1790 C   0  0  0  0  0  0  0  0  0  0  0  0
   12.7949   -3.3630    1.9701 O   0  0  0  0  0  0  0  0  0  0  0  0
   13.7253   -3.6022    4.1624 N   0  0  0  0  0  0  0  0  0  0  0  0
   15.3907   -2.8779    4.4577 C   0  0  1  0  0  0  0  0  0  0  0  0
   15.2506   -2.0030    5.7157 C   0  0  0  0  0  0  0  0  0  0  0  0
   15.2111   -0.5201    6.0243 C   0  0  0  0  0  0  0  0  0  0  0  0
   17.2185   -3.4301    4.7526 C   0  0  0  0  0  0  0  0  0  0  0  0
   17.6636   -4.3676    4.0870 O   0  0  0  0  0  0  0  0  0  0  0  0
   18.2802   -2.6243    5.6902 N   0  0  0  0  0  0  0  0  0  0  0  0
   17.8906   -1.8394    6.8758 C   0  0  0  0  0  0  0  0  0  0  0  0
   19.9549   -2.6737    5.7189 C   0  0  2  0  0  0  0  0  0  0  0  0
   20.3992   -3.5811    6.9164 C   0  0  0  0  0  0  0  0  0  0  0  0
   20.7955   -1.2297    6.1664 C   0  0  0  0  0  0  0  0  0  0  0  0
   20.3117   -0.6119    7.1293 O   0  0  0  0  0  0  0  0  0  0  0  0
   22.0184   -0.7240    5.6151 N   0  0  0  0  0  0  0  0  0  0  0  0
   22.8566   -1.5965    4.7786 C   0  0  0  0  0  0  0  0  0  0  0  0
   23.1013   -1.0737    3.3714 C   0  0  0  0  0  0  0  0  0  0  0  0
   22.6147    0.8438    5.9164 C   0  0  1  0  0  0  0  0  0  0  0  0
   21.4518    1.7628    6.4992 C   0  0  0  0  0  0  0  0  0  0  0  0
   21.3396    3.2685    6.8345 C   0  0  0  0  0  0  0  0  0  0  0  0
   20.3825    1.7166    5.4137 C   0  0  0  0  0  0  0  0  0  0  0  0
   24.1617    0.9081    6.4123 C   0  0  0  0  0  0  0  0  0  0  0  0
   24.9347   -0.0348    6.1367 O   0  0  0  0  0  0  0  0  0  0  0  0
   24.8418    1.9734    6.9517 N   0  0  0  0  0  0  0  0  0  0  0  0
   24.3949    3.3311    7.3154 C   0  0  1  0  0  0  0  0  0  0  0  0
   25.1052    3.9280    8.5448 C   0  0  0  0  0  0  0  0  0  0  0  0
   24.9940    2.9861    9.7585 C   0  0  0  0  0  0  0  0  0  0  0  0
   26.5637    4.3211    8.3456 C   0  0  0  0  0  0  0  0  0  0  0  0
   24.1090    4.1413    5.9811 C   0  0  0  0  0  0  0  0  0  0  0  0
   23.9046    3.4160    5.0025 O   0  0  0  0  0  0  0  0  0  0  0  0
   23.8402    5.5049    5.8923 N   0  0  0  0  0  0  0  0  0  0  0  0
   24.3029    6.4877    6.8664 C   0  0  0  0  0  0  0  0  0  0  0  0
   23.1227    6.1270    4.6964 C   0  0  1  0  0  0  0  0  0  0  0  0
   22.7402    5.2507    3.4945 C   0  0  0  0  0  0  0  0  0  0  0  0
   23.8735    4.7096    2.5946 C   0  0  0  0  0  0  0  0  0  0  0  0
   23.2840    3.6506    1.6551 C   0  0  0  0  0  0  0  0  0  0  0  0
   24.5721    5.8116    1.8059 C   0  0  0  0  0  0  0  0  0  0  0  0
   21.9916    7.1045    5.1667 C   0  0  0  0  0  0  0  0  0  0  0  0
   22.2894    8.1110    5.8529 O   0  0  0  0  0  0  0  0  0  0  0  0
   20.6324    6.9755    5.0342 N   0  0  0  0  0  0  0  0  0  0  0  0
   19.8013    6.1973    4.0768 C   0  0  1  0  0  0  0  0  0  0  0  0
   18.4267    6.0291    4.7066 C   0  0  0  0  0  0  0  0  0  0  0  0
   19.8160    6.9543    2.7139 C   0  0  0  0  0  0  0  0  0  0  0  0
   20.5929    7.8913    2.5032 O   0  0  0  0  0  0  0  0  0  0  0  0
   19.1435    6.4847    1.6143 N   0  0  0  0  0  0  0  0  0  0  0  0
   17.7158    6.7833    1.3519 C   0  0  2  0  0  0  0  0  0  0  0  0
   17.2453    8.1002    1.9719 C   0  0  0  0  0  0  0  0  0  0  0  0
   16.7964    5.5764    1.6685 C   0  0  0  0  0  0  0  0  0  0  0  0
   16.1510    5.5492    2.7149 O   0  0  0  0  0  0  0  0  0  0  0  0
   16.8360    4.4845    0.7967 N   0  0  0  0  0  0  0  0  0  0  0  0
   16.8355    4.6568   -0.6524 C   0  0  0  0  0  0  0  0  0  0  0  0
   16.4266    3.1411    1.2711 C   0  0  1  0  0  0  0  0  0  0  0  0
   17.3915    2.5939    2.3116 C   0  0  0  0  0  0  0  0  0  0  0  0
   17.0606    1.1655    2.7725 C   0  0  0  0  0  0  0  0  0  0  0  0
   17.4277    0.0978    1.7470 C   0  0  0  0  0  0  0  0  0  0  0  0
   17.8650    0.9157    4.0186 C   0  0  0  0  0  0  0  0  0  0  0  0
   14.8972    2.8700    1.4127 C   0  0  0  0  0  0  0  0  0  0  0  0
   14.3462    2.3755    0.4029 O   0  0  0  0  0  0  0  0  0  0  0  0
   14.1332    3.2308    2.5077 N   0  0  0  0  0  0  0  0  0  0  0  0
   14.6413    3.4517    3.8615 C   0  0  0  0  0  0  0  0  0  0  0  0
   12.6504    3.3705    2.3726 C   0  0  1  0  0  0  0  0  0  0  0  0
   12.2007    4.1082    1.1107 C   0  0  0  0  0  0  0  0  0  0  0  0
   10.6916    4.3737    1.0781 C   0  0  0  0  0  0  0  0  0  0  0  0
   10.2650    5.3501    2.1722 C   0  0  0  0  0  0  0  0  0  0  0  0
   10.3224    4.8799   -0.3098 C   0  0  0  0  0  0  0  0  0  0  0  0
   11.6970    2.2105    2.8197 C   0  0  0  0  0  0  0  0  0  0  0  0
   11.0504    2.3864    3.8612 O   0  0  0  0  0  0  0  0  0  0  0  0
   11.6741    0.9893    2.1518 N   0  0  0  0  0  0  0  0  0  0  0  0
   11.4009    0.8972    0.7292 C   0  0  0  0  0  0  0  0  0  0  0  0
   11.4746   -0.2633    2.9477 C   0  0  1  0  0  0  0  0  0  0  0  0
   12.1950   -0.1568    4.3255 C   0  0  0  0  0  0  0  0  0  0  0  0
   12.1870   -1.1891    5.4880 C   0  0  0  0  0  0  0  0  0  0  0  0
   13.6052    0.1310    3.8891 C   0  0  0  0  0  0  0  0  0  0  0  0
   10.0601   -0.6844    3.1746 C   0  0  0  0  0  0  0  0  0  0  0  0
    9.0734   -0.0965    2.7487 O   0  0  0  0  0  0  0  0  0  0  0  0
   10.0453   -1.7736    4.0647 N   0  0  0  0  0  0  0  0  0  0  0  0
    8.9544   -1.7182    5.0562 C   0  0  0  0  0  0  0  0  0  0  0  0
   11.0580   -6.6012   -0.7335 H   0  0  0  0  0  0  0  0  0  0  0  0
    9.6695   -6.7811   -1.8277 H   0  0  0  0  0  0  0  0  0  0  0  0
    9.7330   -7.6961   -0.2917 H   0  0  0  0  0  0  0  0  0  0  0  0
    9.9154   -4.7387    0.1208 H   0  0  0  0  0  0  0  0  0  0  0  0
    7.4090   -6.5160   -0.0082 H   0  0  0  0  0  0  0  0  0  0  0  0
    6.6422   -4.9761    1.6871 H   0  0  0  0  0  0  0  0  0  0  0  0
    6.6057   -4.1327    0.1591 H   0  0  0  0  0  0  0  0  0  0  0  0
    8.6710   -2.8078    0.7749 H   0  0  0  0  0  0  0  0  0  0  0  0
    6.3410   -2.8682    2.8290 H   0  0  0  0  0  0  0  0  0  0  0  0
    6.1573   -2.3095    1.1778 H   0  0  0  0  0  0  0  0  0  0  0  0
    7.1892   -1.4183    2.2657 H   0  0  0  0  0  0  0  0  0  0  0  0
    8.5330   -3.0808    3.3774 H   0  0  0  0  0  0  0  0  0  0  0  0
    7.6268   -4.7748    3.6844 H   0  0  0  0  0  0  0  0  0  0  0  0
   10.6366   -3.7444    4.5193 H   0  0  0  0  0  0  0  0  0  0  0  0
   14.0450   -4.4980    3.8033 H   0  0  0  0  0  0  0  0  0  0  0  0
   15.5070   -2.3005    3.5295 H   0  0  0  0  0  0  0  0  0  0  0  0
   16.2888   -1.8484    5.6540 H   0  0  0  0  0  0  0  0  0  0  0  0
   15.0346   -2.6178    6.5879 H   0  0  0  0  0  0  0  0  0  0  0  0
   15.6168    0.0541    5.1894 H   0  0  0  0  0  0  0  0  0  0  0  0
   15.8653   -0.2478    6.8581 H   0  0  0  0  0  0  0  0  0  0  0  0
   14.2525   -0.1661    6.3635 H   0  0  0  0  0  0  0  0  0  0  0  0
   16.9644   -2.1622    7.3365 H   0  0  0  0  0  0  0  0  0  0  0  0
   17.9044   -0.7837    6.5828 H   0  0  0  0  0  0  0  0  0  0  0  0
   18.5850   -1.9507    7.7017 H   0  0  0  0  0  0  0  0  0  0  0  0
   20.3000   -3.0841    4.7688 H   0  0  0  0  0  0  0  0  0  0  0  0
   20.1583   -3.1258    7.8874 H   0  0  0  0  0  0  0  0  0  0  0  0
   21.4897   -3.6949    6.9488 H   0  0  0  0  0  0  0  0  0  0  0  0
   19.9255   -4.5638    6.9096 H   0  0  0  0  0  0  0  0  0  0  0  0
   22.4003   -2.5862    4.7088 H   0  0  0  0  0  0  0  0  0  0  0  0
   23.8081   -1.7681    5.2852 H   0  0  0  0  0  0  0  0  0  0  0  0
   22.1587   -0.8661    2.8588 H   0  0  0  0  0  0  0  0  0  0  0  0
   23.6539   -1.8178    2.7842 H   0  0  0  0  0  0  0  0  0  0  0  0
   23.7013   -0.1577    3.3693 H   0  0  0  0  0  0  0  0  0  0  0  0
   22.7423    1.1953    4.8806 H   0  0  0  0  0  0  0  0  0  0  0  0
   21.1512    1.3008    7.4382 H   0  0  0  0  0  0  0  0  0  0  0  0
   21.5642    3.9160    5.9871 H   0  0  0  0  0  0  0  0  0  0  0  0
   21.8178    3.6239    7.7414 H   0  0  0  0  0  0  0  0  0  0  0  0
   20.2909    3.4931    7.0846 H   0  0  0  0  0  0  0  0  0  0  0  0
   20.6534    2.3666    4.5698 H   0  0  0  0  0  0  0  0  0  0  0  0
   19.4204    2.0444    5.8144 H   0  0  0  0  0  0  0  0  0  0  0  0
   20.2552    0.7273    4.9918 H   0  0  0  0  0  0  0  0  0  0  0  0
   25.8485    1.8399    6.8875 H   0  0  0  0  0  0  0  0  0  0  0  0
   23.4429    3.0797    7.7275 H   0  0  0  0  0  0  0  0  0  0  0  0
   24.5462    4.8237    8.8353 H   0  0  0  0  0  0  0  0  0  0  0  0
   25.7076    2.1569    9.6911 H   0  0  0  0  0  0  0  0  0  0  0  0
   23.9880    2.5606    9.8459 H   0  0  0  0  0  0  0  0  0  0  0  0
   25.1971    3.5328   10.6855 H   0  0  0  0  0  0  0  0  0  0  0  0
   27.2320    3.4519    8.3891 H   0  0  0  0  0  0  0  0  0  0  0  0
   26.8693    5.0083    9.1434 H   0  0  0  0  0  0  0  0  0  0  0  0
   26.7431    4.8196    7.3901 H   0  0  0  0  0  0  0  0  0  0  0  0
   25.1870    6.1657    7.3890 H   0  0  0  0  0  0  0  0  0  0  0  0
   23.5046    6.7027    7.5845 H   0  0  0  0  0  0  0  0  0  0  0  0
   24.6008    7.4075    6.3506 H   0  0  0  0  0  0  0  0  0  0  0  0
   23.8661    6.8326    4.2998 H   0  0  0  0  0  0  0  0  0  0  0  0
   22.1079    5.8372    2.8254 H   0  0  0  0  0  0  0  0  0  0  0  0
   22.1236    4.4167    3.8421 H   0  0  0  0  0  0  0  0  0  0  0  0
   24.6607    4.2264    3.1743 H   0  0  0  0  0  0  0  0  0  0  0  0
   22.6113    4.1022    0.9184 H   0  0  0  0  0  0  0  0  0  0  0  0
   22.7165    2.8996    2.2160 H   0  0  0  0  0  0  0  0  0  0  0  0
   24.0790    3.1234    1.1182 H   0  0  0  0  0  0  0  0  0  0  0  0
   23.8567    6.4306    1.2550 H   0  0  0  0  0  0  0  0  0  0  0  0
   25.2772    5.3791    1.0879 H   0  0  0  0  0  0  0  0  0  0  0  0
   25.1464    6.4598    2.4756 H   0  0  0  0  0  0  0  0  0  0  0  0
   20.1903    7.7864    5.3802 H   0  0  0  0  0  0  0  0  0  0  0  0
   20.2305    5.2111    3.9324 H   0  0  0  0  0  0  0  0  0  0  0  0
   17.8512    6.9576    4.7071 H   0  0  0  0  0  0  0  0  0  0  0  0
   18.5037    5.7011    5.7494 H   0  0  0  0  0  0  0  0  0  0  0  0
   17.8620    5.2603    4.1858 H   0  0  0  0  0  0  0  0  0  0  0  0
   19.6664    6.8681    0.8340 H   0  0  0  0  0  0  0  0  0  0  0  0
   17.6625    6.9636    0.2770 H   0  0  0  0  0  0  0  0  0  0  0  0
   17.5627    8.2297    3.0081 H   0  0  0  0  0  0  0  0  0  0  0  0
   16.1551    8.1873    1.9445 H   0  0  0  0  0  0  0  0  0  0  0  0
   17.6655    8.9437    1.4108 H   0  0  0  0  0  0  0  0  0  0  0  0
   17.3830    5.5387   -0.9768 H   0  0  0  0  0  0  0  0  0  0  0  0
   15.7967    4.7506   -0.9840 H   0  0  0  0  0  0  0  0  0  0  0  0
   17.2983    3.7893   -1.1319 H   0  0  0  0  0  0  0  0  0  0  0  0
   16.6689    2.4908    0.4120 H   0  0  0  0  0  0  0  0  0  0  0  0
   17.4738    3.2735    3.1628 H   0  0  0  0  0  0  0  0  0  0  0  0
   18.4055    2.6060    1.8826 H   0  0  0  0  0  0  0  0  0  0  0  0
   16.0058    1.0672    3.0239 H   0  0  0  0  0  0  0  0  0  0  0  0
   18.4873    0.1574    1.4743 H   0  0  0  0  0  0  0  0  0  0  0  0
   16.8284    0.1948    0.8376 H   0  0  0  0  0  0  0  0  0  0  0  0
   17.2501   -0.9021    2.1612 H   0  0  0  0  0  0  0  0  0  0  0  0
   18.8758    1.2029    3.7534 H   0  0  0  0  0  0  0  0  0  0  0  0
   17.8752   -0.1299    4.3247 H   0  0  0  0  0  0  0  0  0  0  0  0
   17.5086    1.5303    4.8523 H   0  0  0  0  0  0  0  0  0  0  0  0
   15.7127    3.3540    3.9540 H   0  0  0  0  0  0  0  0  0  0  0  0
   14.1925    2.7249    4.5376 H   0  0  0  0  0  0  0  0  0  0  0  0
   14.3426    4.4412    4.2137 H   0  0  0  0  0  0  0  0  0  0  0  0
   12.4500    4.1128    3.1598 H   0  0  0  0  0  0  0  0  0  0  0  0
   12.4767    3.5692    0.2040 H   0  0  0  0  0  0  0  0  0  0  0  0
   12.7513    5.0567    1.0547 H   0  0  0  0  0  0  0  0  0  0  0  0
   10.1401    3.4398    1.2304 H   0  0  0  0  0  0  0  0  0  0  0  0
   10.8431    6.2778    2.1235 H   0  0  0  0  0  0  0  0  0  0  0  0
   10.4085    4.9205    3.1696 H   0  0  0  0  0  0  0  0  0  0  0  0
    9.2031    5.5923    2.0825 H   0  0  0  0  0  0  0  0  0  0  0  0
   10.9007    5.7712   -0.5712 H   0  0  0  0  0  0  0  0  0  0  0  0
    9.2573    5.1167   -0.3677 H   0  0  0  0  0  0  0  0  0  0  0  0
   10.5356    4.1068   -1.0578 H   0  0  0  0  0  0  0  0  0  0  0  0
   12.0124    1.5913    0.1643 H   0  0  0  0  0  0  0  0  0  0  0  0
   10.3475    1.1363    0.5603 H   0  0  0  0  0  0  0  0  0  0  0  0
   11.6073   -0.1124    0.3625 H   0  0  0  0  0  0  0  0  0  0  0  0
   11.9398   -1.0459    2.3439 H   0  0  0  0  0  0  0  0  0  0  0  0
   11.7747    0.6933    4.8569 H   0  0  0  0  0  0  0  0  0  0  0  0
   12.8930   -1.9843    5.3578 H   0  0  0  0  0  0  0  0  0  0  0  0
   11.2740   -1.6801    5.7848 H   0  0  0  0  0  0  0  0  0  0  0  0
   12.4418   -0.6881    6.4247 H   0  0  0  0  0  0  0  0  0  0  0  0
   14.1548   -0.7911    3.7720 H   0  0  0  0  0  0  0  0  0  0  0  0
   14.0011    0.8241    4.6098 H   0  0  0  0  0  0  0  0  0  0  0  0
   13.7516    0.6139    2.9269 H   0  0  0  0  0  0  0  0  0  0  0  0
    9.3413   -1.3182    6.0063 H   0  0  0  0  0  0  0  0  0  0  0  0
    8.5170   -2.6989    5.2666 H   0  0  0  0  0  0  0  0  0  0  0  0
    8.1562   -1.0354    4.7441 H   0  0  0  0  0  0  0  0  0  0  0  0
  1  2  1  0  0  0  0
  1 87  1  0  0  0  0
  1 88  1  0  0  0  0
  1 89  1  0  0  0  0
  2  3  2  0  0  0  0
  2 90  1  0  0  0  0
  3  4  1  0  0  0  0
  3 91  1  0  0  0  0
  4  5  1  0  0  0  0
  4 92  1  0  0  0  0
  4 93  1  0  0  0  0
  5  6  1  0  0  0  0
  5  7  1  0  0  0  0
  5 94  1  6  0  0  0
  6 95  1  0  0  0  0
  6 96  1  0  0  0  0
  6 97  1  0  0  0  0
  7  8  1  0  0  0  0
  7  9  1  0  0  0  0
  7 98  1  1  0  0  0
  8 99  1  0  0  0  0
  9 10  1  0  0  0  0
  9 85  1  0  0  0  0
  9100  1  1  0  0  0
 10 11  2  0  0  0  0
 10 12  1  0  0  0  0
 12 13  1  0  0  0  0
 12101  1  0  0  0  0
 13 14  1  0  0  0  0
 13 16  1  0  0  0  0
 13102  1  6  0  0  0
 14 15  1  0  0  0  0
 14103  1  0  0  0  0
 14104  1  0  0  0  0
 15105  1  0  0  0  0
 15106  1  0  0  0  0
 15107  1  0  0  0  0
 16 17  2  0  0  0  0
 16 18  1  0  0  0  0
 18 19  1  0  0  0  0
 18 20  1  0  0  0  0
 19108  1  0  0  0  0
 19109  1  0  0  0  0
 19110  1  0  0  0  0
 20 22  1  0  0  0  0
 20 21  1  0  0  0  0
 20111  1  6  0  0  0
 21112  1  0  0  0  0
 21113  1  0  0  0  0
 21114  1  0  0  0  0
 22 23  2  0  0  0  0
 22 24  1  0  0  0  0
 24 25  1  0  0  0  0
 24 27  1  0  0  0  0
 25 26  1  0  0  0  0
 25115  1  0  0  0  0
 25116  1  0  0  0  0
 26117  1  0  0  0  0
 26118  1  0  0  0  0
 26119  1  0  0  0  0
 27 28  1  0  0  0  0
 27 31  1  0  0  0  0
 27120  1  6  0  0  0
 28 29  1  0  0  0  0
 28 30  1  0  0  0  0
 28121  1  0  0  0  0
 29122  1  0  0  0  0
 29123  1  0  0  0  0
 29124  1  0  0  0  0
 30125  1  0  0  0  0
 30126  1  0  0  0  0
 30127  1  0  0  0  0
 31 32  2  0  0  0  0
 31 33  1  0  0  0  0
 33 34  1  0  0  0  0
 33128  1  0  0  0  0
 34 35  1  0  0  0  0
 34 38  1  0  0  0  0
 34129  1  1  0  0  0
 35 36  1  0  0  0  0
 35 37  1  0  0  0  0
 35130  1  0  0  0  0
 36131  1  0  0  0  0
 36132  1  0  0  0  0
 36133  1  0  0  0  0
 37134  1  0  0  0  0
 37135  1  0  0  0  0
 37136  1  0  0  0  0
 38 39  2  0  0  0  0
 38 40  1  0  0  0  0
 40 41  1  0  0  0  0
 40 42  1  0  0  0  0
 41137  1  0  0  0  0
 41138  1  0  0  0  0
 41139  1  0  0  0  0
 42 43  1  0  0  0  0
 42 47  1  0  0  0  0
 42140  1  6  0  0  0
 43 44  1  0  0  0  0
 43141  1  0  0  0  0
 43142  1  0  0  0  0
 44 45  1  0  0  0  0
 44 46  1  0  0  0  0
 44143  1  0  0  0  0
 45144  1  0  0  0  0
 45145  1  0  0  0  0
 45146  1  0  0  0  0
 46147  1  0  0  0  0
 46148  1  0  0  0  0
 46149  1  0  0  0  0
 47 48  2  0  0  0  0
 47 49  1  0  0  0  0
 49 50  1  0  0  0  0
 49150  1  0  0  0  0
 50 51  1  0  0  0  0
 50 52  1  0  0  0  0
 50151  1  6  0  0  0
 51152  1  0  0  0  0
 51153  1  0  0  0  0
 51154  1  0  0  0  0
 52 53  2  0  0  0  0
 52 54  1  0  0  0  0
 54 55  1  0  0  0  0
 54155  1  0  0  0  0
 55 57  1  0  0  0  0
 55 56  1  0  0  0  0
 55156  1  6  0  0  0
 56157  1  0  0  0  0
 56158  1  0  0  0  0
 56159  1  0  0  0  0
 57 58  2  0  0  0  0
 57 59  1  0  0  0  0
 59 60  1  0  0  0  0
 59 61  1  0  0  0  0
 60160  1  0  0  0  0
 60161  1  0  0  0  0
 60162  1  0  0  0  0
 61 62  1  0  0  0  0
 61 66  1  0  0  0  0
 61163  1  6  0  0  0
 62 63  1  0  0  0  0
 62164  1  0  0  0  0
 62165  1  0  0  0  0
 63 64  1  0  0  0  0
 63 65  1  0  0  0  0
 63166  1  0  0  0  0
 64167  1  0  0  0  0
 64168  1  0  0  0  0
 64169  1  0  0  0  0
 65170  1  0  0  0  0
 65171  1  0  0  0  0
 65172  1  0  0  0  0
 66 67  2  0  0  0  0
 66 68  1  0  0  0  0
 68 69  1  0  0  0  0
 68 70  1  0  0  0  0
 69173  1  0  0  0  0
 69174  1  0  0  0  0
 69175  1  0  0  0  0
 70 71  1  0  0  0  0
 70 75  1  0  0  0  0
 70176  1  1  0  0  0
 71 72  1  0  0  0  0
 71177  1  0  0  0  0
 71178  1  0  0  0  0
 72 73  1  0  0  0  0
 72 74  1  0  0  0  0
 72179  1  0  0  0  0
 73180  1  0  0  0  0
 73181  1  0  0  0  0
 73182  1  0  0  0  0
 74183  1  0  0  0  0
 74184  1  0  0  0  0
 74185  1  0  0  0  0
 75 76  2  0  0  0  0
 75 77  1  0  0  0  0
 77 78  1  0  0  0  0
 77 79  1  0  0  0  0
 78186  1  0  0  0  0
 78187  1  0  0  0  0
 78188  1  0  0  0  0
 79 80  1  0  0  0  0
 79 83  1  0  0  0  0
 79189  1  6  0  0  0
 80 81  1  0  0  0  0
 80 82  1  0  0  0  0
 80190  1  0  0  0  0
 81191  1  0  0  0  0
 81192  1  0  0  0  0
 81193  1  0  0  0  0
 82194  1  0  0  0  0
 82195  1  0  0  0  0
 82196  1  0  0  0  0
 83 84  2  0  0  0  0
 83 85  1  0  0  0  0
 85 86  1  0  0  0  0
 86197  1  0  0  0  0
 86198  1  0  0  0  0
 86199  1  0  0  0  0
M  END
>  <Energy>
929.266

$$$$