25223201
  -OEChem-03242010103D

 80 84  0     1  0  0  0  0  0999 V2000
   11.6086   -1.7194   -2.1903 O   0  0  0  0  0  0  0  0  0  0  0  0
   12.8268   -0.7481    0.1098 O   0  0  0  0  0  0  0  0  0  0  0  0
   -2.0833   -0.7576   -0.3574 O   0  0  0  0  0  0  0  0  0  0  0  0
   -7.4683    4.0055   -0.3672 O   0  0  0  0  0  0  0  0  0  0  0  0
   -8.4361    2.1090   -1.2422 O   0  0  0  0  0  0  0  0  0  0  0  0
   -6.1608   -2.1978    0.2356 O   0  0  0  0  0  0  0  0  0  0  0  0
    6.4942    0.1526    0.6003 N   0  0  2  0  0  0  0  0  0  0  0  0
   -1.2591    1.3191    0.3745 N   0  0  0  0  0  0  0  0  0  0  0  0
   -7.1045   -0.1015   -0.2548 N   0  0  0  0  0  0  0  0  0  0  0  0
   -9.5259   -1.2650   -0.1307 N   0  0  0  0  0  0  0  0  0  0  0  0
   -9.8689   -3.9961    0.4079 N   0  0  0  0  0  0  0  0  0  0  0  0
    7.1259    1.2653    1.3200 C   0  0  0  0  0  0  0  0  0  0  0  0
    7.2352   -0.1375   -0.6400 C   0  0  0  0  0  0  0  0  0  0  0  0
    8.5170    0.8474    1.8074 C   0  0  0  0  0  0  0  0  0  0  0  0
    8.7192   -0.3240   -0.4206 C   0  0  0  0  0  0  0  0  0  0  0  0
    9.3401    0.1880    0.7315 C   0  0  0  0  0  0  0  0  0  0  0  0
    5.0959    0.4567    0.2986 C   0  0  0  0  0  0  0  0  0  0  0  0
    4.2094    0.2304    1.5237 C   0  0  0  0  0  0  0  0  0  0  0  0
    9.4966   -0.9543   -1.4016 C   0  0  0  0  0  0  0  0  0  0  0  0
   10.7215    0.0296    0.9031 C   0  0  0  0  0  0  0  0  0  0  0  0
   10.8728   -1.0985   -1.2263 C   0  0  0  0  0  0  0  0  0  0  0  0
   11.4841   -0.6090   -0.0743 C   0  0  0  0  0  0  0  0  0  0  0  0
    2.7610    0.5194    1.2197 C   0  0  0  0  0  0  0  0  0  0  0  0
    2.2511    1.8041    1.4070 C   0  0  0  0  0  0  0  0  0  0  0  0
    1.9311   -0.4988    0.7502 C   0  0  0  0  0  0  0  0  0  0  0  0
    0.9112    2.0707    1.1247 C   0  0  0  0  0  0  0  0  0  0  0  0
    0.5913   -0.2322    0.4682 C   0  0  0  0  0  0  0  0  0  0  0  0
    0.0813    1.0525    0.6555 C   0  0  0  0  0  0  0  0  0  0  0  0
   12.1479   -0.8977   -3.2237 C   0  0  0  0  0  0  0  0  0  0  0  0
   13.2708   -1.9294    0.7743 C   0  0  0  0  0  0  0  0  0  0  0  0
   -2.2341    0.4318   -0.0997 C   0  0  0  0  0  0  0  0  0  0  0  0
   -3.5915    1.0116   -0.2765 C   0  0  0  0  0  0  0  0  0  0  0  0
   -4.7171    0.1929   -0.1863 C   0  0  0  0  0  0  0  0  0  0  0  0
   -3.7394    2.3751   -0.5307 C   0  0  0  0  0  0  0  0  0  0  0  0
   -5.9908    0.7376   -0.3498 C   0  0  0  0  0  0  0  0  0  0  0  0
   -6.1388    2.1011   -0.6041 C   0  0  0  0  0  0  0  0  0  0  0  0
   -5.0131    2.9198   -0.6946 C   0  0  0  0  0  0  0  0  0  0  0  0
   -7.4549    2.7023   -0.7799 C   0  0  0  0  0  0  0  0  0  0  0  0
   -7.1270   -1.4732    0.0226 C   0  0  0  0  0  0  0  0  0  0  0  0
   -8.4795   -2.0867    0.0849 C   0  0  0  0  0  0  0  0  0  0  0  0
   -8.6479   -3.4280    0.3495 C   0  0  0  0  0  0  0  0  0  0  0  0
   -8.7106    4.7067   -0.4884 C   0  0  0  0  0  0  0  0  0  0  0  0
  -10.9152   -3.1744    0.1926 C   0  0  0  0  0  0  0  0  0  0  0  0
  -10.7468   -1.8329   -0.0721 C   0  0  0  0  0  0  0  0  0  0  0  0
  -12.2797   -3.7675    0.2496 C   0  0  0  0  0  0  0  0  0  0  0  0
    6.5475    1.5645    2.2004 H   0  0  0  0  0  0  0  0  0  0  0  0
    7.2050    2.1505    0.6738 H   0  0  0  0  0  0  0  0  0  0  0  0
    7.1010    0.6716   -1.3706 H   0  0  0  0  0  0  0  0  0  0  0  0
    6.8344   -1.0608   -1.0770 H   0  0  0  0  0  0  0  0  0  0  0  0
    8.4155    0.1399    2.6403 H   0  0  0  0  0  0  0  0  0  0  0  0
    9.0404    1.7346    2.1835 H   0  0  0  0  0  0  0  0  0  0  0  0
    4.9817    1.4765   -0.0934 H   0  0  0  0  0  0  0  0  0  0  0  0
    4.7354   -0.2143   -0.4935 H   0  0  0  0  0  0  0  0  0  0  0  0
    4.5166    0.8578    2.3684 H   0  0  0  0  0  0  0  0  0  0  0  0
    4.3066   -0.8057    1.8749 H   0  0  0  0  0  0  0  0  0  0  0  0
    9.0257   -1.3341   -2.3055 H   0  0  0  0  0  0  0  0  0  0  0  0
   11.2031    0.4068    1.8024 H   0  0  0  0  0  0  0  0  0  0  0  0
    2.8885    2.6060    1.7701 H   0  0  0  0  0  0  0  0  0  0  0  0
    2.3185   -1.5029    0.5989 H   0  0  0  0  0  0  0  0  0  0  0  0
    0.5278    3.0769    1.2748 H   0  0  0  0  0  0  0  0  0  0  0  0
    0.0141   -1.0722    0.1086 H   0  0  0  0  0  0  0  0  0  0  0  0
   12.8261   -0.1474   -2.8052 H   0  0  0  0  0  0  0  0  0  0  0  0
   11.3443   -0.4081   -3.7829 H   0  0  0  0  0  0  0  0  0  0  0  0
   12.7124   -1.5358   -3.9091 H   0  0  0  0  0  0  0  0  0  0  0  0
   14.3619   -1.8967    0.8386 H   0  0  0  0  0  0  0  0  0  0  0  0
   12.9801   -2.8213    0.2104 H   0  0  0  0  0  0  0  0  0  0  0  0
   12.8614   -1.9757    1.7885 H   0  0  0  0  0  0  0  0  0  0  0  0
   -1.5403    2.2715    0.5887 H   0  0  0  0  0  0  0  0  0  0  0  0
   -4.5360   -0.8520    0.0149 H   0  0  0  0  0  0  0  0  0  0  0  0
   -2.8918    3.0430   -0.6507 H   0  0  0  0  0  0  0  0  0  0  0  0
   -5.0920    3.9814   -0.9145 H   0  0  0  0  0  0  0  0  0  0  0  0
   -8.0100    0.3409   -0.3891 H   0  0  0  0  0  0  0  0  0  0  0  0
   -7.8197   -4.1043    0.5250 H   0  0  0  0  0  0  0  0  0  0  0  0
   -8.5639    5.7254   -0.1201 H   0  0  0  0  0  0  0  0  0  0  0  0
   -9.4795    4.2193    0.1184 H   0  0  0  0  0  0  0  0  0  0  0  0
   -9.0171    4.7517   -1.5377 H   0  0  0  0  0  0  0  0  0  0  0  0
  -11.5827   -1.1657   -0.2465 H   0  0  0  0  0  0  0  0  0  0  0  0
  -12.7901   -3.6422   -0.7106 H   0  0  0  0  0  0  0  0  0  0  0  0
  -12.2335   -4.8391    0.4701 H   0  0  0  0  0  0  0  0  0  0  0  0
  -12.8718   -3.2865    1.0345 H   0  0  0  0  0  0  0  0  0  0  0  0
  1 21  1  0  0  0  0
  1 29  1  0  0  0  0
  2 22  1  0  0  0  0
  2 30  1  0  0  0  0
  3 31  2  0  0  0  0
  4 38  1  0  0  0  0
  4 42  1  0  0  0  0
  5 38  2  0  0  0  0
  6 39  2  0  0  0  0
  7 12  1  0  0  0  0
  7 13  1  0  0  0  0
  7 17  1  0  0  0  0
  8 28  1  0  0  0  0
  8 31  1  0  0  0  0
  8 68  1  0  0  0  0
  9 35  1  0  0  0  0
  9 39  1  0  0  0  0
  9 72  1  0  0  0  0
 10 40  2  0  0  0  0
 10 44  1  0  0  0  0
 11 41  2  0  0  0  0
 11 43  1  0  0  0  0
 12 14  1  0  0  0  0
 12 46  1  0  0  0  0
 12 47  1  0  0  0  0
 13 15  1  0  0  0  0
 13 48  1  0  0  0  0
 13 49  1  0  0  0  0
 14 16  1  0  0  0  0
 14 50  1  0  0  0  0
 14 51  1  0  0  0  0
 15 16  1  0  0  0  0
 15 19  2  0  0  0  0
 16 20  2  0  0  0  0
 17 18  1  0  0  0  0
 17 52  1  0  0  0  0
 17 53  1  0  0  0  0
 18 23  1  0  0  0  0
 18 54  1  0  0  0  0
 18 55  1  0  0  0  0
 19 21  1  0  0  0  0
 19 56  1  0  0  0  0
 20 22  1  0  0  0  0
 20 57  1  0  0  0  0
 21 22  2  0  0  0  0
 23 24  2  0  0  0  0
 23 25  1  0  0  0  0
 24 26  1  0  0  0  0
 24 58  1  0  0  0  0
 25 27  2  0  0  0  0
 25 59  1  0  0  0  0
 26 28  2  0  0  0  0
 26 60  1  0  0  0  0
 27 28  1  0  0  0  0
 27 61  1  0  0  0  0
 29 62  1  0  0  0  0
 29 63  1  0  0  0  0
 29 64  1  0  0  0  0
 30 65  1  0  0  0  0
 30 66  1  0  0  0  0
 30 67  1  0  0  0  0
 31 32  1  0  0  0  0
 32 33  2  0  0  0  0
 32 34  1  0  0  0  0
 33 35  1  0  0  0  0
 33 69  1  0  0  0  0
 34 37  2  0  0  0  0
 34 70  1  0  0  0  0
 35 36  2  0  0  0  0
 36 37  1  0  0  0  0
 36 38  1  0  0  0  0
 37 71  1  0  0  0  0
 39 40  1  0  0  0  0
 40 41  1  0  0  0  0
 41 73  1  0  0  0  0
 42 74  1  0  0  0  0
 42 75  1  0  0  0  0
 42 76  1  0  0  0  0
 43 44  2  0  0  0  0
 43 45  1  0  0  0  0
 44 77  1  0  0  0  0
 45 78  1  0  0  0  0
 45 79  1  0  0  0  0
 45 80  1  0  0  0  0
M  END
> <PUBCHEM_COMPOUND_CID>
25223201

> <PUBCHEM_CONFORMER_RMSD>
1.4

> <PUBCHEM_CONFORMER_DIVERSEORDER>
2
41
14
44
31
35
24
9
29
37
33
6
28
5
26
19
25
40
17
38
27
3
42
21
16
15
43
34
39
32
10
23
11
22
30
8
36
7
4
20
1
18
13
12

> <PUBCHEM_MMFF94_PARTIAL_CHARGES>
58
1 -0.36
10 -0.62
11 -0.62
12 0.27
13 0.41
14 0.14
15 -0.14
16 -0.14
17 0.27
18 0.14
19 -0.15
2 -0.36
20 -0.15
21 0.08
22 0.08
23 -0.14
24 -0.15
25 -0.15
26 -0.15
27 -0.15
28 0.12
29 0.28
3 -0.57
30 0.28
31 0.54
32 0.09
33 -0.15
34 -0.15
35 0.12
36 0.09
37 -0.15
38 0.63
39 0.54
4 -0.43
40 0.4
41 0.16
42 0.28
43 0.17
44 0.16
45 0.14
5 -0.57
56 0.15
57 0.15
58 0.15
59 0.15
6 -0.57
60 0.15
61 0.15
68 0.37
69 0.15
7 -0.81
70 0.15
71 0.15
72 0.37
73 0.15
77 0.15
8 -0.55
9 -0.55

> <PUBCHEM_EFFECTIVE_ROTOR_COUNT>
13.8

> <PUBCHEM_PHARMACOPHORE_FEATURES>
15
1 1 acceptor
1 10 acceptor
1 11 acceptor
1 2 acceptor
1 3 acceptor
1 5 acceptor
1 6 acceptor
1 7 cation
1 8 donor
1 9 donor
6 10 11 40 41 43 44 rings
6 15 16 19 20 21 22 rings
6 23 24 25 26 27 28 rings
6 32 33 34 35 36 37 rings
6 7 12 13 14 15 16 rings

> <PUBCHEM_HEAVY_ATOM_COUNT>
45

> <PUBCHEM_ATOM_DEF_STEREO_COUNT>
0

> <PUBCHEM_ATOM_UDEF_STEREO_COUNT>
0

> <PUBCHEM_BOND_DEF_STEREO_COUNT>
0

> <PUBCHEM_BOND_UDEF_STEREO_COUNT>
0

> <PUBCHEM_ISOTOPIC_ATOM_COUNT>
0

> <PUBCHEM_COMPONENT_COUNT>
1

> <PUBCHEM_CACTVS_TAUTO_COUNT>
6

> <PUBCHEM_CONFORMER_ID>
0180E02100000002

> <PUBCHEM_MMFF94_ENERGY>
162.2921

> <PUBCHEM_FEATURE_SELFOVERLAP>
76.157

> <PUBCHEM_SHAPE_FINGERPRINT>
10168742 298 18271253738607075982
10533779 47 17346597512971971434
11146346 171 18342455967119683816
12013929 94 18408321112203006547
12089408 11 17531241734851020960
12522641 33 14995997736483512144
12539745 222 18273216418449859793
131240 100 18341890823350870240
15065858 18 18343860010063611672
15247644 1 18271807973445086295
15274700 232 18263084482982878779
15510794 2 18272931622888194768
15538507 75 12175633841799865772
16728433 110 15984808326584417056
20105231 36 18343584066028942498
21792961 116 17917989478249035753
3092352 35 17894627051230027570
3991529 128 17896045360710653469
44280117 145 18260825974292399501
44389302 135 17988364871094615703
4516262 110 13045936911625590264
5028188 123 18261110751381379877
54728670 133 16200164154236716745
636775 8 18408040732622037659
9937071 3 17418092101907529110

> <PUBCHEM_SHAPE_MULTIPOLES>
865.96
62.26
4.17
1.49
84.57
0.68
-0.72
-47.87
-14.64
-22.49
-0.4
6.16
-0.04
5.86

> <PUBCHEM_SHAPE_SELFOVERLAP>
1874.125

> <PUBCHEM_SHAPE_VOLUME>
473.3

> <PUBCHEM_COORDINATE_TYPE>
2
5
10

$$$$