122179388
  -OEChem-03242010103D

 75 78  0     1  0  0  0  0  0999 V2000
    3.6045    0.6121   -0.3125 O   0  0  0  0  0  0  0  0  0  0  0  0
    0.1516   -0.6998   -0.1080 O   0  0  0  0  0  0  0  0  0  0  0  0
    3.9342   -4.2116   -0.0300 O   0  0  0  0  0  0  0  0  0  0  0  0
    7.8391   -1.5017   -0.2492 O   0  0  0  0  0  0  0  0  0  0  0  0
   -0.1315    4.5377   -2.1087 O   0  0  0  0  0  0  0  0  0  0  0  0
    1.0247    4.0983    2.5182 O   0  0  0  0  0  0  0  0  0  0  0  0
   -0.1241    5.5601    0.4652 O   0  0  0  0  0  0  0  0  0  0  0  0
   -0.3298   -1.4919    2.0083 O   0  0  0  0  0  0  0  0  0  0  0  0
   -6.6784   -0.2357   -1.7999 O   0  0  0  0  0  0  0  0  0  0  0  0
   -8.4556   -1.8418   -0.3893 O   0  0  0  0  0  0  0  0  0  0  0  0
    1.5348   -0.6196    0.2194 C   0  0  2  0  0  0  0  0  0  0  0  0
    2.2007    0.4980   -0.5957 C   0  0  1  0  0  0  0  0  0  0  0  0
    2.1966   -1.9530   -0.1181 C   0  0  0  0  0  0  0  0  0  0  0  0
    3.6890   -1.8214   -0.1528 C   0  0  0  0  0  0  0  0  0  0  0  0
    1.5786    1.8527   -0.3123 C   0  0  0  0  0  0  0  0  0  0  0  0
    4.2990   -0.5667   -0.2588 C   0  0  0  0  0  0  0  0  0  0  0  0
    4.4918   -2.9691   -0.1071 C   0  0  0  0  0  0  0  0  0  0  0  0
    5.6924   -0.4603   -0.2797 C   0  0  0  0  0  0  0  0  0  0  0  0
    1.5844    2.3644    0.9853 C   0  0  0  0  0  0  0  0  0  0  0  0
    1.0013    2.5862   -1.3489 C   0  0  0  0  0  0  0  0  0  0  0  0
    5.8825   -2.8618   -0.1400 C   0  0  0  0  0  0  0  0  0  0  0  0
    6.4824   -1.6075   -0.2221 C   0  0  0  0  0  0  0  0  0  0  0  0
    0.4296    3.8314   -1.0878 C   0  0  0  0  0  0  0  0  0  0  0  0
    1.0126    3.6096    1.2464 C   0  0  0  0  0  0  0  0  0  0  0  0
    0.4351    4.3430    0.2099 C   0  0  0  0  0  0  0  0  0  0  0  0
   -0.6660   -1.1537    0.8845 C   0  0  0  0  0  0  0  0  0  0  0  0
   -2.0512   -1.1670    0.3621 C   0  0  0  0  0  0  0  0  0  0  0  0
    3.6456   -4.8677   -1.2622 C   0  0  0  0  0  0  0  0  0  0  0  0
    8.5862   -2.7158   -0.1869 C   0  0  0  0  0  0  0  0  0  0  0  0
   -3.0522   -1.5772    1.1538 C   0  0  0  0  0  0  0  0  0  0  0  0
   -0.0950    3.9430   -3.4045 C   0  0  0  0  0  0  0  0  0  0  0  0
    1.6347    3.2853    3.5186 C   0  0  0  0  0  0  0  0  0  0  0  0
   -1.5071    5.5763    0.8120 C   0  0  0  0  0  0  0  0  0  0  0  0
   -4.4669   -1.6447    0.7471 C   0  0  0  0  0  0  0  0  0  0  0  0
   -4.9143   -0.9021   -0.3455 C   0  0  0  0  0  0  0  0  0  0  0  0
   -5.3588   -2.4507    1.4548 C   0  0  0  0  0  0  0  0  0  0  0  0
   -6.2534   -0.9654   -0.7309 C   0  0  0  0  0  0  0  0  0  0  0  0
   -6.6981   -2.5138    1.0696 C   0  0  0  0  0  0  0  0  0  0  0  0
   -7.1453   -1.7713   -0.0232 C   0  0  0  0  0  0  0  0  0  0  0  0
   -5.7032    0.5622   -2.4685 C   0  0  0  0  0  0  0  0  0  0  0  0
   -9.3005   -2.6891    0.3871 C   0  0  0  0  0  0  0  0  0  0  0  0
    1.6830   -0.4222    1.2902 H   0  0  0  0  0  0  0  0  0  0  0  0
    2.0927    0.2806   -1.6680 H   0  0  0  0  0  0  0  0  0  0  0  0
    1.8426   -2.3052   -1.0952 H   0  0  0  0  0  0  0  0  0  0  0  0
    1.8867   -2.7021    0.6206 H   0  0  0  0  0  0  0  0  0  0  0  0
    6.1633    0.5176   -0.3465 H   0  0  0  0  0  0  0  0  0  0  0  0
    2.0590    1.7626    1.7518 H   0  0  0  0  0  0  0  0  0  0  0  0
    1.0245    2.1402   -2.3371 H   0  0  0  0  0  0  0  0  0  0  0  0
    6.4427   -3.7902   -0.0965 H   0  0  0  0  0  0  0  0  0  0  0  0
   -2.1879   -0.8599   -0.6681 H   0  0  0  0  0  0  0  0  0  0  0  0
    3.1274   -5.8041   -1.0379 H   0  0  0  0  0  0  0  0  0  0  0  0
    4.5739   -5.1015   -1.7930 H   0  0  0  0  0  0  0  0  0  0  0  0
    2.9986   -4.2543   -1.8962 H   0  0  0  0  0  0  0  0  0  0  0  0
    9.6465   -2.4444   -0.2175 H   0  0  0  0  0  0  0  0  0  0  0  0
    8.4188   -3.2436    0.7581 H   0  0  0  0  0  0  0  0  0  0  0  0
    8.3942   -3.3516   -1.0579 H   0  0  0  0  0  0  0  0  0  0  0  0
   -2.8471   -1.9010    2.1717 H   0  0  0  0  0  0  0  0  0  0  0  0
   -0.5841    4.6408   -4.0924 H   0  0  0  0  0  0  0  0  0  0  0  0
   -0.6695    3.0109   -3.4376 H   0  0  0  0  0  0  0  0  0  0  0  0
    0.9325    3.8143   -3.7614 H   0  0  0  0  0  0  0  0  0  0  0  0
    1.5505    3.8256    4.4674 H   0  0  0  0  0  0  0  0  0  0  0  0
    2.7042    3.1447    3.3282 H   0  0  0  0  0  0  0  0  0  0  0  0
    1.1040    2.3356    3.6470 H   0  0  0  0  0  0  0  0  0  0  0  0
   -1.8047    6.6142    0.9847 H   0  0  0  0  0  0  0  0  0  0  0  0
   -1.6811    5.0055    1.7296 H   0  0  0  0  0  0  0  0  0  0  0  0
   -2.1137    5.1698   -0.0034 H   0  0  0  0  0  0  0  0  0  0  0  0
   -4.2080   -0.2627   -0.8591 H   0  0  0  0  0  0  0  0  0  0  0  0
   -5.0264   -3.0369    2.3082 H   0  0  0  0  0  0  0  0  0  0  0  0
   -7.3330   -3.1606    1.6652 H   0  0  0  0  0  0  0  0  0  0  0  0
   -5.3077    1.3484   -1.8163 H   0  0  0  0  0  0  0  0  0  0  0  0
   -6.2139    1.0664   -3.2957 H   0  0  0  0  0  0  0  0  0  0  0  0
   -4.9128   -0.0519   -2.9137 H   0  0  0  0  0  0  0  0  0  0  0  0
  -10.3052   -2.6242   -0.0436 H   0  0  0  0  0  0  0  0  0  0  0  0
   -9.3764   -2.3432    1.4236 H   0  0  0  0  0  0  0  0  0  0  0  0
   -8.9928   -3.7381    0.3187 H   0  0  0  0  0  0  0  0  0  0  0  0
  1 12  1  0  0  0  0
  1 16  1  0  0  0  0
  2 11  1  0  0  0  0
  2 26  1  0  0  0  0
  3 17  1  0  0  0  0
  3 28  1  0  0  0  0
  4 22  1  0  0  0  0
  4 29  1  0  0  0  0
  5 23  1  0  0  0  0
  5 31  1  0  0  0  0
  6 24  1  0  0  0  0
  6 32  1  0  0  0  0
  7 25  1  0  0  0  0
  7 33  1  0  0  0  0
  8 26  2  0  0  0  0
  9 37  1  0  0  0  0
  9 40  1  0  0  0  0
 10 39  1  0  0  0  0
 10 41  1  0  0  0  0
 11 12  1  0  0  0  0
 11 13  1  0  0  0  0
 11 42  1  0  0  0  0
 12 15  1  0  0  0  0
 12 43  1  0  0  0  0
 13 14  1  0  0  0  0
 13 44  1  0  0  0  0
 13 45  1  0  0  0  0
 14 16  2  0  0  0  0
 14 17  1  0  0  0  0
 15 19  2  0  0  0  0
 15 20  1  0  0  0  0
 16 18  1  0  0  0  0
 17 21  2  0  0  0  0
 18 22  2  0  0  0  0
 18 46  1  0  0  0  0
 19 24  1  0  0  0  0
 19 47  1  0  0  0  0
 20 23  2  0  0  0  0
 20 48  1  0  0  0  0
 21 22  1  0  0  0  0
 21 49  1  0  0  0  0
 23 25  1  0  0  0  0
 24 25  2  0  0  0  0
 26 27  1  0  0  0  0
 27 30  2  0  0  0  0
 27 50  1  0  0  0  0
 28 51  1  0  0  0  0
 28 52  1  0  0  0  0
 28 53  1  0  0  0  0
 29 54  1  0  0  0  0
 29 55  1  0  0  0  0
 29 56  1  0  0  0  0
 30 34  1  0  0  0  0
 30 57  1  0  0  0  0
 31 58  1  0  0  0  0
 31 59  1  0  0  0  0
 31 60  1  0  0  0  0
 32 61  1  0  0  0  0
 32 62  1  0  0  0  0
 32 63  1  0  0  0  0
 33 64  1  0  0  0  0
 33 65  1  0  0  0  0
 33 66  1  0  0  0  0
 34 35  2  0  0  0  0
 34 36  1  0  0  0  0
 35 37  1  0  0  0  0
 35 67  1  0  0  0  0
 36 38  2  0  0  0  0
 36 68  1  0  0  0  0
 37 39  2  0  0  0  0
 38 39  1  0  0  0  0
 38 69  1  0  0  0  0
 40 70  1  0  0  0  0
 40 71  1  0  0  0  0
 40 72  1  0  0  0  0
 41 73  1  0  0  0  0
 41 74  1  0  0  0  0
 41 75  1  0  0  0  0
M  END
> <PUBCHEM_COMPOUND_CID>
122179388

> <PUBCHEM_CONFORMER_RMSD>
1.2

> <PUBCHEM_CONFORMER_DIVERSEORDER>
2
6
15
14
10
19
8
12
18
7
4
13
9
20
3
17
16
11
5
1

> <PUBCHEM_MMFF94_PARTIAL_CHARGES>
50
1 -0.36
10 -0.36
11 0.28
12 0.42
13 0.14
14 -0.14
15 -0.14
16 0.08
17 0.08
18 -0.15
19 -0.15
2 -0.43
20 -0.15
21 -0.15
22 0.08
23 0.08
24 0.08
25 0.08
26 0.71
27 -0.14
28 0.28
29 0.28
3 -0.36
30 -0.18
31 0.28
32 0.28
33 0.28
34 0.03
35 -0.15
36 -0.15
37 0.08
38 -0.15
39 0.08
4 -0.36
40 0.28
41 0.28
46 0.15
47 0.15
48 0.15
49 0.15
5 -0.36
50 0.15
57 0.15
6 -0.36
67 0.15
68 0.15
69 0.15
7 -0.36
8 -0.57
9 -0.36

> <PUBCHEM_EFFECTIVE_ROTOR_COUNT>
12.8

> <PUBCHEM_PHARMACOPHORE_FEATURES>
13
1 1 acceptor
1 10 acceptor
1 3 acceptor
1 4 acceptor
1 5 acceptor
1 6 acceptor
1 7 acceptor
1 8 acceptor
1 9 acceptor
6 1 11 12 13 14 16 rings
6 14 16 17 18 21 22 rings
6 15 19 20 23 24 25 rings
6 34 35 36 37 38 39 rings

> <PUBCHEM_HEAVY_ATOM_COUNT>
41

> <PUBCHEM_ATOM_DEF_STEREO_COUNT>
2

> <PUBCHEM_ATOM_UDEF_STEREO_COUNT>
0

> <PUBCHEM_BOND_DEF_STEREO_COUNT>
1

> <PUBCHEM_BOND_UDEF_STEREO_COUNT>
0

> <PUBCHEM_ISOTOPIC_ATOM_COUNT>
0

> <PUBCHEM_COMPONENT_COUNT>
1

> <PUBCHEM_CACTVS_TAUTO_COUNT>
1

> <PUBCHEM_CONFORMER_ID>
07484F3C00000002

> <PUBCHEM_MMFF94_ENERGY>
188.0536

> <PUBCHEM_FEATURE_SELFOVERLAP>
66.026

> <PUBCHEM_SHAPE_FINGERPRINT>
10050765 1 17978516335244338518
10462674 125 18131080294504165490
11297750 10 18411691076904037064
117089 54 18335138683462528909
11720765 8 18340208612750767313
12539745 222 18263639564676558618
12741549 16 17822285812692051460
13835254 42 18341334375486947592
14068700 675 18060142041762489641
14400156 413 18262796392832840156
15351339 4 17677322819309964171
15419008 47 18040431105828616759
16988056 13 18263361554789136605
18365409 1 17976550407341006741
19301679 30 18339925888397729878
20642791 13 18190187780983006690
21049683 271 18410295830785795180
21133410 127 17245261165880947861
21133410 230 18340475756302657672
23559900 14 18264489662599118691
24180151 40 17897719865279546170
24771750 20 17755599465498441175
249057 3 18411420656804127527
283562 15 18189903015829239226
4066623 53 18333452045252264716
4408954 87 17052208535891518017
44317340 157 18194969776253844539
508180 173 18113054944017749057
59521099 67 18271243928322042457
6004065 56 18412265060222337698
9962374 69 18341327916284415387

> <PUBCHEM_SHAPE_MULTIPOLES>
785.07
20.56
7.91
2.14
24.14
11.11
0.01
-33.71
3.07
-4.16
-0.24
1.23
3.19
2.85

> <PUBCHEM_SHAPE_SELFOVERLAP>
1686.469

> <PUBCHEM_SHAPE_VOLUME>
436.9

> <PUBCHEM_COORDINATE_TYPE>
2
5
10

$$$$