71492588
  -OEChem-03242010103D

 71 74  0     1  0  0  0  0  0999 V2000
   -4.0357    4.2129   -2.0635 F   0  0  0  0  0  0  0  0  0  0  0  0
    2.1065   -1.1814   -0.6512 O   0  0  0  0  0  0  0  0  0  0  0  0
    0.0859    0.4182    0.6349 O   0  0  0  0  0  0  0  0  0  0  0  0
    4.3124    2.2931    1.9049 O   0  0  0  0  0  0  0  0  0  0  0  0
    5.8644    1.0856   -2.4277 O   0  0  0  0  0  0  0  0  0  0  0  0
   -2.1777   -2.9222   -2.5093 O   0  0  0  0  0  0  0  0  0  0  0  0
   -1.4809   -5.4310    1.5104 O   0  0  0  0  0  0  0  0  0  0  0  0
   -2.8887   -5.0134   -0.8377 O   0  0  0  0  0  0  0  0  0  0  0  0
   -0.9913    1.0666    2.5633 O   0  0  0  0  0  0  0  0  0  0  0  0
   -4.5415    4.2804    0.6725 N   0  0  0  0  0  0  0  0  0  0  0  0
    0.9648   -0.4142    1.3931 C   0  0  1  0  0  0  0  0  0  0  0  0
    1.4273   -1.6041    0.5422 C   0  0  1  0  0  0  0  0  0  0  0  0
    2.1802    0.4029    1.8267 C   0  0  0  0  0  0  0  0  0  0  0  0
    3.1543    0.5683    0.6915 C   0  0  0  0  0  0  0  0  0  0  0  0
    0.2725   -2.5164    0.1726 C   0  0  0  0  0  0  0  0  0  0  0  0
    3.0698   -0.2248   -0.4598 C   0  0  0  0  0  0  0  0  0  0  0  0
    4.1801    1.5183    0.7903 C   0  0  0  0  0  0  0  0  0  0  0  0
    3.9719   -0.0415   -1.5110 C   0  0  0  0  0  0  0  0  0  0  0  0
   -0.0830   -3.5684    1.0169 C   0  0  0  0  0  0  0  0  0  0  0  0
   -0.4336   -2.3033   -1.0113 C   0  0  0  0  0  0  0  0  0  0  0  0
    5.0886    1.6903   -0.2546 C   0  0  0  0  0  0  0  0  0  0  0  0
    4.9819    0.9137   -1.4061 C   0  0  0  0  0  0  0  0  0  0  0  0
   -1.4951   -3.1422   -1.3510 C   0  0  0  0  0  0  0  0  0  0  0  0
   -1.1445   -4.4072    0.6773 C   0  0  0  0  0  0  0  0  0  0  0  0
   -0.8442    1.1015    1.3514 C   0  0  0  0  0  0  0  0  0  0  0  0
   -1.8505   -4.1941   -0.5067 C   0  0  0  0  0  0  0  0  0  0  0  0
   -1.6907    1.9248    0.4515 C   0  0  0  0  0  0  0  0  0  0  0  0
    5.1361    1.7845    2.9513 C   0  0  0  0  0  0  0  0  0  0  0  0
   -2.7140    2.7112    0.9810 C   0  0  0  0  0  0  0  0  0  0  0  0
   -1.4616    1.9124   -0.9244 C   0  0  0  0  0  0  0  0  0  0  0  0
   -3.5078    3.4853    0.1348 C   0  0  0  0  0  0  0  0  0  0  0  0
    6.8727    2.0803   -2.2540 C   0  0  0  0  0  0  0  0  0  0  0  0
   -2.2553    2.6866   -1.7707 C   0  0  0  0  0  0  0  0  0  0  0  0
   -3.2784    3.4730   -1.2410 C   0  0  0  0  0  0  0  0  0  0  0  0
   -1.7499   -1.8258   -3.3151 C   0  0  0  0  0  0  0  0  0  0  0  0
   -0.7080   -5.5789    2.7002 C   0  0  0  0  0  0  0  0  0  0  0  0
   -4.1838   -4.6348   -0.3769 C   0  0  0  0  0  0  0  0  0  0  0  0
   -5.3680    5.0949   -0.1959 C   0  0  0  0  0  0  0  0  0  0  0  0
   -4.7854    4.2989    2.1009 C   0  0  0  0  0  0  0  0  0  0  0  0
    0.4482   -0.7953    2.2841 H   0  0  0  0  0  0  0  0  0  0  0  0
    2.1498   -2.2055    1.1136 H   0  0  0  0  0  0  0  0  0  0  0  0
    2.6913   -0.1242    2.6407 H   0  0  0  0  0  0  0  0  0  0  0  0
    1.8621    1.3861    2.1918 H   0  0  0  0  0  0  0  0  0  0  0  0
    3.8921   -0.6481   -2.4099 H   0  0  0  0  0  0  0  0  0  0  0  0
    0.5001   -3.6827    1.9245 H   0  0  0  0  0  0  0  0  0  0  0  0
   -0.1299   -1.4654   -1.6282 H   0  0  0  0  0  0  0  0  0  0  0  0
    5.8544    2.4460   -0.1129 H   0  0  0  0  0  0  0  0  0  0  0  0
    5.0637    2.4643    3.8047 H   0  0  0  0  0  0  0  0  0  0  0  0
    6.1801    1.7447    2.6248 H   0  0  0  0  0  0  0  0  0  0  0  0
    4.8075    0.7903    3.2685 H   0  0  0  0  0  0  0  0  0  0  0  0
   -2.8682    2.7004    2.0556 H   0  0  0  0  0  0  0  0  0  0  0  0
   -0.6764    1.3159   -1.3802 H   0  0  0  0  0  0  0  0  0  0  0  0
    7.4842    2.0823   -3.1623 H   0  0  0  0  0  0  0  0  0  0  0  0
    7.5400    1.8358   -1.4205 H   0  0  0  0  0  0  0  0  0  0  0  0
    6.4386    3.0815   -2.1591 H   0  0  0  0  0  0  0  0  0  0  0  0
   -2.0776    2.6772   -2.8420 H   0  0  0  0  0  0  0  0  0  0  0  0
   -1.8841   -0.8691   -2.7991 H   0  0  0  0  0  0  0  0  0  0  0  0
   -2.3987   -1.8028   -4.1970 H   0  0  0  0  0  0  0  0  0  0  0  0
   -0.7263   -1.9657   -3.6790 H   0  0  0  0  0  0  0  0  0  0  0  0
    0.3391   -5.8092    2.4759 H   0  0  0  0  0  0  0  0  0  0  0  0
   -0.8134   -4.7114    3.3606 H   0  0  0  0  0  0  0  0  0  0  0  0
   -1.1129   -6.4403    3.2417 H   0  0  0  0  0  0  0  0  0  0  0  0
   -4.9022   -5.3838   -0.7209 H   0  0  0  0  0  0  0  0  0  0  0  0
   -4.4699   -3.6614   -0.7878 H   0  0  0  0  0  0  0  0  0  0  0  0
   -4.2094   -4.6024    0.7169 H   0  0  0  0  0  0  0  0  0  0  0  0
   -5.6199    4.9598    2.3610 H   0  0  0  0  0  0  0  0  0  0  0  0
   -3.9121    4.6723    2.6473 H   0  0  0  0  0  0  0  0  0  0  0  0
   -5.0530    3.3026    2.4704 H   0  0  0  0  0  0  0  0  0  0  0  0
   -6.1176    5.6518    0.3789 H   0  0  0  0  0  0  0  0  0  0  0  0
   -5.9353    4.4810   -0.9041 H   0  0  0  0  0  0  0  0  0  0  0  0
   -4.7762    5.8523   -0.7215 H   0  0  0  0  0  0  0  0  0  0  0  0
  1 34  1  0  0  0  0
  2 12  1  0  0  0  0
  2 16  1  0  0  0  0
  3 11  1  0  0  0  0
  3 25  1  0  0  0  0
  4 17  1  0  0  0  0
  4 28  1  0  0  0  0
  5 22  1  0  0  0  0
  5 32  1  0  0  0  0
  6 23  1  0  0  0  0
  6 35  1  0  0  0  0
  7 24  1  0  0  0  0
  7 36  1  0  0  0  0
  8 26  1  0  0  0  0
  8 37  1  0  0  0  0
  9 25  2  0  0  0  0
 10 31  1  0  0  0  0
 10 38  1  0  0  0  0
 10 39  1  0  0  0  0
 11 12  1  0  0  0  0
 11 13  1  0  0  0  0
 11 40  1  0  0  0  0
 12 15  1  0  0  0  0
 12 41  1  0  0  0  0
 13 14  1  0  0  0  0
 13 42  1  0  0  0  0
 13 43  1  0  0  0  0
 14 16  2  0  0  0  0
 14 17  1  0  0  0  0
 15 19  2  0  0  0  0
 15 20  1  0  0  0  0
 16 18  1  0  0  0  0
 17 21  2  0  0  0  0
 18 22  2  0  0  0  0
 18 44  1  0  0  0  0
 19 24  1  0  0  0  0
 19 45  1  0  0  0  0
 20 23  2  0  0  0  0
 20 46  1  0  0  0  0
 21 22  1  0  0  0  0
 21 47  1  0  0  0  0
 23 26  1  0  0  0  0
 24 26  2  0  0  0  0
 25 27  1  0  0  0  0
 27 29  2  0  0  0  0
 27 30  1  0  0  0  0
 28 48  1  0  0  0  0
 28 49  1  0  0  0  0
 28 50  1  0  0  0  0
 29 31  1  0  0  0  0
 29 51  1  0  0  0  0
 30 33  2  0  0  0  0
 30 52  1  0  0  0  0
 31 34  2  0  0  0  0
 32 53  1  0  0  0  0
 32 54  1  0  0  0  0
 32 55  1  0  0  0  0
 33 34  1  0  0  0  0
 33 56  1  0  0  0  0
 35 57  1  0  0  0  0
 35 58  1  0  0  0  0
 35 59  1  0  0  0  0
 36 60  1  0  0  0  0
 36 61  1  0  0  0  0
 36 62  1  0  0  0  0
 37 63  1  0  0  0  0
 37 64  1  0  0  0  0
 37 65  1  0  0  0  0
 38 69  1  0  0  0  0
 38 70  1  0  0  0  0
 38 71  1  0  0  0  0
 39 66  1  0  0  0  0
 39 67  1  0  0  0  0
 39 68  1  0  0  0  0
M  END
> <PUBCHEM_COMPOUND_CID>
71492588

> <PUBCHEM_CONFORMER_RMSD>
1.2

> <PUBCHEM_CONFORMER_DIVERSEORDER>
3
14
23
8
21
5
18
13
24
20
19
11
17
26
10
7
22
15
4
9
25
1
16
12
6
2

> <PUBCHEM_MMFF94_PARTIAL_CHARGES>
46
1 -0.19
10 -0.84
11 0.28
12 0.42
13 0.14
14 -0.14
15 -0.14
16 0.08
17 0.08
18 -0.15
19 -0.15
2 -0.36
20 -0.15
21 -0.15
22 0.08
23 0.08
24 0.08
25 0.63
26 0.08
27 0.09
28 0.28
29 -0.15
3 -0.43
30 -0.15
31 0.1
32 0.28
33 -0.15
34 0.19
35 0.28
36 0.28
37 0.28
38 0.37
39 0.37
4 -0.36
44 0.15
45 0.15
46 0.15
47 0.15
5 -0.36
51 0.15
52 0.15
56 0.15
6 -0.36
7 -0.36
8 -0.36
9 -0.57

> <PUBCHEM_EFFECTIVE_ROTOR_COUNT>
10.8

> <PUBCHEM_PHARMACOPHORE_FEATURES>
12
1 10 cation
1 2 acceptor
1 4 acceptor
1 5 acceptor
1 6 acceptor
1 7 acceptor
1 8 acceptor
1 9 acceptor
6 14 16 17 18 21 22 rings
6 15 19 20 23 24 26 rings
6 2 11 12 13 14 16 rings
6 27 29 30 31 33 34 rings

> <PUBCHEM_HEAVY_ATOM_COUNT>
39

> <PUBCHEM_ATOM_DEF_STEREO_COUNT>
2

> <PUBCHEM_ATOM_UDEF_STEREO_COUNT>
0

> <PUBCHEM_BOND_DEF_STEREO_COUNT>
0

> <PUBCHEM_BOND_UDEF_STEREO_COUNT>
0

> <PUBCHEM_ISOTOPIC_ATOM_COUNT>
0

> <PUBCHEM_COMPONENT_COUNT>
1

> <PUBCHEM_CACTVS_TAUTO_COUNT>
1

> <PUBCHEM_CONFORMER_ID>
0442E3EC00000003

> <PUBCHEM_MMFF94_ENERGY>
177.6362

> <PUBCHEM_FEATURE_SELFOVERLAP>
60.941

> <PUBCHEM_SHAPE_FINGERPRINT>
10815517 723 18196392513718178419
11062273 29 17622157971639457612
11505856 67 18190191254799387364
11991303 11 18338532871166931710
12160290 23 18271806864915431562
12741549 16 17693082381442763795
12788726 201 18194380389642345519
13540713 4 17846220020924713720
14294032 229 18337404810849743920
15198563 99 18122075457064511164
15219462 58 18268141141131693638
15484559 13 17913771617788718412
15968369 153 17841990288963819445
19319366 153 17912346646698576625
21033650 10 18341038727207785694
21120745 212 17976275838687045148
21304303 282 18193526009257447050
21365058 113 17547022178461153911
21641784 216 17761799633575309708
21772528 278 18339372876528809093
22182313 1 17631733919670433312
22440779 20 18053961806935231593
3178227 256 17832151524137688946
4058900 60 18053682281905757097
437795 70 17771885372322522511
44802255 64 16888705792522207718
46939830 39 17827086413914357743
5080951 261 17917714638943913062
5081480 168 17547276161652630055
9658208 31 18343022181797174920

> <PUBCHEM_SHAPE_MULTIPOLES>
743.39
11.24
9.25
2.89
12.6
8.74
0.21
-17.59
3.21
-17.61
-1.85
1.31
0.1
-1.17

> <PUBCHEM_SHAPE_SELFOVERLAP>
1606.464

> <PUBCHEM_SHAPE_VOLUME>
413

> <PUBCHEM_COORDINATE_TYPE>
2
5
10

$$$$