90655527
  -OEChem-03242010103D

 76 78  0     0  0  0  0  0  0999 V2000
   10.8971    2.0448   -0.7642 O   0  0  0  0  0  0  0  0  0  0  0  0
   -9.5940    3.9219   -0.0358 O   0  0  0  0  0  0  0  0  0  0  0  0
    9.4199    3.8078    0.7796 O   0  0  0  0  0  0  0  0  0  0  0  0
   -6.9483    3.8371   -0.8525 O   0  0  0  0  0  0  0  0  0  0  0  0
    9.8384   -0.4320   -1.4082 O   0  0  0  0  0  0  0  0  0  0  0  0
  -10.8640    1.5870    0.7420 O   0  0  0  0  0  0  0  0  0  0  0  0
    1.1291   -1.3249    2.0167 O   0  0  0  0  0  0  0  0  0  0  0  0
   -3.5216   -4.8870   -0.1734 O   0  0  0  0  0  0  0  0  0  0  0  0
    7.1122    0.9806    0.5748 C   0  0  0  0  0  0  0  0  0  0  0  0
   -7.5411    0.3118   -0.0898 C   0  0  0  0  0  0  0  0  0  0  0  0
    9.6550    1.6952   -0.3237 C   0  0  0  0  0  0  0  0  0  0  0  0
   -8.9203    2.7368   -0.0546 C   0  0  0  0  0  0  0  0  0  0  0  0
    8.9137    2.5860    0.4526 C   0  0  0  0  0  0  0  0  0  0  0  0
   -7.5878    2.6981   -0.4655 C   0  0  0  0  0  0  0  0  0  0  0  0
    9.1248    0.4470   -0.6508 C   0  0  0  0  0  0  0  0  0  0  0  0
   -9.5632    1.5629    0.3387 C   0  0  0  0  0  0  0  0  0  0  0  0
    7.6424    2.2287    0.9019 C   0  0  0  0  0  0  0  0  0  0  0  0
   -6.8983    1.4857   -0.4832 C   0  0  0  0  0  0  0  0  0  0  0  0
    7.8534    0.0899   -0.2018 C   0  0  0  0  0  0  0  0  0  0  0  0
   -8.8735    0.3505    0.3213 C   0  0  0  0  0  0  0  0  0  0  0  0
    0.7786   -3.0139    0.4257 C   0  0  0  0  0  0  0  0  0  0  0  0
   -1.3751   -3.9388   -0.1609 C   0  0  0  0  0  0  0  0  0  0  0  0
    5.7697    0.6038    1.0505 C   0  0  0  0  0  0  0  0  0  0  0  0
   -6.8122   -0.9685   -0.1097 C   0  0  0  0  0  0  0  0  0  0  0  0
   -0.6142   -2.9382    0.4438 C   0  0  0  0  0  0  0  0  0  0  0  0
    1.4105   -4.0903   -0.1974 C   0  0  0  0  0  0  0  0  0  0  0  0
   -0.7431   -5.0151   -0.7839 C   0  0  0  0  0  0  0  0  0  0  0  0
    1.5726   -1.9702    1.0544 C   0  0  0  0  0  0  0  0  0  0  0  0
   -2.8270   -3.8594   -0.1431 C   0  0  0  0  0  0  0  0  0  0  0  0
    0.6495   -5.0907   -0.8023 C   0  0  0  0  0  0  0  0  0  0  0  0
    5.0057   -0.3623    0.5163 C   0  0  0  0  0  0  0  0  0  0  0  0
   -5.4757   -1.0945   -0.1092 C   0  0  0  0  0  0  0  0  0  0  0  0
    2.9324   -1.6627    0.4943 C   0  0  0  0  0  0  0  0  0  0  0  0
   -3.4749   -2.5041   -0.1209 C   0  0  0  0  0  0  0  0  0  0  0  0
    3.6937   -0.6976    1.0292 C   0  0  0  0  0  0  0  0  0  0  0  0
   -4.8097   -2.3802   -0.1215 C   0  0  0  0  0  0  0  0  0  0  0  0
   10.9738    2.7041   -2.0261 C   0  0  0  0  0  0  0  0  0  0  0  0
  -10.2902    4.2890   -1.2248 C   0  0  0  0  0  0  0  0  0  0  0  0
   10.1710    3.8953    1.9889 C   0  0  0  0  0  0  0  0  0  0  0  0
   -5.5867    3.7097   -1.2579 C   0  0  0  0  0  0  0  0  0  0  0  0
    9.2235   -1.6863   -1.6971 C   0  0  0  0  0  0  0  0  0  0  0  0
  -11.4461    0.3432    1.1277 C   0  0  0  0  0  0  0  0  0  0  0  0
    7.0721    2.9317    1.5053 H   0  0  0  0  0  0  0  0  0  0  0  0
   -5.8738    1.4233   -0.8263 H   0  0  0  0  0  0  0  0  0  0  0  0
    7.4308   -0.8830   -0.4161 H   0  0  0  0  0  0  0  0  0  0  0  0
   -9.3243   -0.5909    0.6184 H   0  0  0  0  0  0  0  0  0  0  0  0
    5.3991    1.1744    1.9000 H   0  0  0  0  0  0  0  0  0  0  0  0
   -7.4352   -1.8609   -0.1169 H   0  0  0  0  0  0  0  0  0  0  0  0
   -1.0841   -2.1074    0.9625 H   0  0  0  0  0  0  0  0  0  0  0  0
    2.4899   -4.2075   -0.2045 H   0  0  0  0  0  0  0  0  0  0  0  0
   -1.3184   -5.8032   -1.2629 H   0  0  0  0  0  0  0  0  0  0  0  0
    1.1410   -5.9325   -1.2814 H   0  0  0  0  0  0  0  0  0  0  0  0
    5.3299   -0.9328   -0.3488 H   0  0  0  0  0  0  0  0  0  0  0  0
   -4.8209   -0.2292   -0.0737 H   0  0  0  0  0  0  0  0  0  0  0  0
    3.2766   -2.2030   -0.3804 H   0  0  0  0  0  0  0  0  0  0  0  0
   -2.8490   -1.6193   -0.1501 H   0  0  0  0  0  0  0  0  0  0  0  0
    3.3461   -0.1348    1.8916 H   0  0  0  0  0  0  0  0  0  0  0  0
   -5.4457   -3.2616   -0.1194 H   0  0  0  0  0  0  0  0  0  0  0  0
   12.0253    2.9153   -2.2386 H   0  0  0  0  0  0  0  0  0  0  0  0
   10.4255    3.6511   -2.0000 H   0  0  0  0  0  0  0  0  0  0  0  0
   10.5785    2.0633   -2.8206 H   0  0  0  0  0  0  0  0  0  0  0  0
  -10.7749    5.2541   -1.0537 H   0  0  0  0  0  0  0  0  0  0  0  0
  -11.0602    3.5489   -1.4647 H   0  0  0  0  0  0  0  0  0  0  0  0
   -9.5940    4.3913   -2.0632 H   0  0  0  0  0  0  0  0  0  0  0  0
   11.0466    3.2397    1.9473 H   0  0  0  0  0  0  0  0  0  0  0  0
   10.5124    4.9274    2.1062 H   0  0  0  0  0  0  0  0  0  0  0  0
    9.5457    3.6335    2.8484 H   0  0  0  0  0  0  0  0  0  0  0  0
   -4.9502    3.3603   -0.4377 H   0  0  0  0  0  0  0  0  0  0  0  0
   -5.4888    3.0937   -2.1584 H   0  0  0  0  0  0  0  0  0  0  0  0
   -5.2363    4.7128   -1.5231 H   0  0  0  0  0  0  0  0  0  0  0  0
    9.0567   -2.2740   -0.7879 H   0  0  0  0  0  0  0  0  0  0  0  0
    8.3119   -1.5636   -2.2921 H   0  0  0  0  0  0  0  0  0  0  0  0
    9.9282   -2.2539   -2.3141 H   0  0  0  0  0  0  0  0  0  0  0  0
  -12.4818    0.5492    1.4176 H   0  0  0  0  0  0  0  0  0  0  0  0
  -11.4861   -0.3614    0.2899 H   0  0  0  0  0  0  0  0  0  0  0  0
  -10.9493   -0.0800    2.0074 H   0  0  0  0  0  0  0  0  0  0  0  0
  1 11  1  0  0  0  0
  1 37  1  0  0  0  0
  2 12  1  0  0  0  0
  2 38  1  0  0  0  0
  3 13  1  0  0  0  0
  3 39  1  0  0  0  0
  4 14  1  0  0  0  0
  4 40  1  0  0  0  0
  5 15  1  0  0  0  0
  5 41  1  0  0  0  0
  6 16  1  0  0  0  0
  6 42  1  0  0  0  0
  7 28  2  0  0  0  0
  8 29  2  0  0  0  0
  9 17  2  0  0  0  0
  9 19  1  0  0  0  0
  9 23  1  0  0  0  0
 10 18  2  0  0  0  0
 10 20  1  0  0  0  0
 10 24  1  0  0  0  0
 11 13  2  0  0  0  0
 11 15  1  0  0  0  0
 12 14  2  0  0  0  0
 12 16  1  0  0  0  0
 13 17  1  0  0  0  0
 14 18  1  0  0  0  0
 15 19  2  0  0  0  0
 16 20  2  0  0  0  0
 17 43  1  0  0  0  0
 18 44  1  0  0  0  0
 19 45  1  0  0  0  0
 20 46  1  0  0  0  0
 21 25  2  0  0  0  0
 21 26  1  0  0  0  0
 21 28  1  0  0  0  0
 22 25  1  0  0  0  0
 22 27  2  0  0  0  0
 22 29  1  0  0  0  0
 23 31  2  0  0  0  0
 23 47  1  0  0  0  0
 24 32  2  0  0  0  0
 24 48  1  0  0  0  0
 25 49  1  0  0  0  0
 26 30  2  0  0  0  0
 26 50  1  0  0  0  0
 27 30  1  0  0  0  0
 27 51  1  0  0  0  0
 28 33  1  0  0  0  0
 29 34  1  0  0  0  0
 30 52  1  0  0  0  0
 31 35  1  0  0  0  0
 31 53  1  0  0  0  0
 32 36  1  0  0  0  0
 32 54  1  0  0  0  0
 33 35  2  0  0  0  0
 33 55  1  0  0  0  0
 34 36  2  0  0  0  0
 34 56  1  0  0  0  0
 35 57  1  0  0  0  0
 36 58  1  0  0  0  0
 37 59  1  0  0  0  0
 37 60  1  0  0  0  0
 37 61  1  0  0  0  0
 38 62  1  0  0  0  0
 38 63  1  0  0  0  0
 38 64  1  0  0  0  0
 39 65  1  0  0  0  0
 39 66  1  0  0  0  0
 39 67  1  0  0  0  0
 40 68  1  0  0  0  0
 40 69  1  0  0  0  0
 40 70  1  0  0  0  0
 41 71  1  0  0  0  0
 41 72  1  0  0  0  0
 41 73  1  0  0  0  0
 42 74  1  0  0  0  0
 42 75  1  0  0  0  0
 42 76  1  0  0  0  0
M  END
> <PUBCHEM_COMPOUND_CID>
90655527

> <PUBCHEM_CONFORMER_RMSD>
1.2

> <PUBCHEM_CONFORMER_DIVERSEORDER>
45
10
30
9
108
57
99
140
98
109
89
52
27
126
132
59
16
118
78
44
65
146
61
90
20
134
56
71
135
115
15
119
51
114
120
60
43
76
123
117
53
139
49
14
77
21
104
93
54
62
152
37
105
31
110
111
67
129
147
34
130
100
128
80
82
138
83
150
38
22
116
95
70
17
106
113
63
137
148
124
133
87
94
143
103
141
86
68
125
11
64
107
84
79
58
40
102
122
144
72
142
121
66
74
96
91
39
149
85
47
81
23
131
18
3
97
101
42
145
92
112
127
48
55
36
13
1
29
75
151
19
4
136
25
2
35
6
41
26
50
33
8
12
28
32
69
88
7
73
24
5
46

> <PUBCHEM_MMFF94_PARTIAL_CHARGES>
58
1 -0.36
10 0.03
11 0.08
12 0.08
13 0.08
14 0.08
15 0.08
16 0.08
17 -0.15
18 -0.15
19 -0.15
2 -0.36
20 -0.15
21 0.09
22 0.09
23 -0.18
24 -0.18
25 -0.15
26 -0.15
27 -0.15
28 0.47
29 0.47
3 -0.36
30 -0.15
31 -0.15
32 -0.15
33 -0.14
34 -0.14
35 -0.15
36 -0.15
37 0.28
38 0.28
39 0.28
4 -0.36
40 0.28
41 0.28
42 0.28
43 0.15
44 0.15
45 0.15
46 0.15
47 0.15
48 0.15
49 0.15
5 -0.36
50 0.15
51 0.15
52 0.15
53 0.15
54 0.15
55 0.15
56 0.15
57 0.15
58 0.15
6 -0.36
7 -0.57
8 -0.57
9 0.03

> <PUBCHEM_EFFECTIVE_ROTOR_COUNT>
14

> <PUBCHEM_PHARMACOPHORE_FEATURES>
11
1 1 acceptor
1 2 acceptor
1 3 acceptor
1 4 acceptor
1 5 acceptor
1 6 acceptor
1 7 acceptor
1 8 acceptor
6 10 12 14 16 18 20 rings
6 21 22 25 26 27 30 rings
6 9 11 13 15 17 19 rings

> <PUBCHEM_HEAVY_ATOM_COUNT>
42

> <PUBCHEM_ATOM_DEF_STEREO_COUNT>
0

> <PUBCHEM_ATOM_UDEF_STEREO_COUNT>
0

> <PUBCHEM_BOND_DEF_STEREO_COUNT>
4

> <PUBCHEM_BOND_UDEF_STEREO_COUNT>
0

> <PUBCHEM_ISOTOPIC_ATOM_COUNT>
0

> <PUBCHEM_COMPONENT_COUNT>
1

> <PUBCHEM_CACTVS_TAUTO_COUNT>
1

> <PUBCHEM_CONFORMER_ID>
05674B270000002D

> <PUBCHEM_MMFF94_ENERGY>
186.3284

> <PUBCHEM_FEATURE_SELFOVERLAP>
55.848

> <PUBCHEM_SHAPE_FINGERPRINT>
10190206 1 17846787290887306643
10952577 141 18272931639672743655
11181472 205 18260261967919253194
11421887 45 18341034303033833369
11621639 183 18187086170155405307
12124843 1 17775562040194963255
131240 88 18411145744900513625
14040221 97 18336542713015262821
14201967 126 18335137613483863653
14359421 15 11383831567916287597
15439362 3 18413108333737854398
15455200 90 18335998523652720406
15538507 64 18341602764284240664
15890870 6 18413389830874158083
19303781 99 8646482991009351227
20609170 45 18198911310860316846
21133410 127 18263638468900345895
21585482 111 18409728426845779735
23516275 100 18263358085162664421
2851757 41 9151173185980912993
6201320 82 18340778069900901817
6673363 416 18270114743134489631

> <PUBCHEM_SHAPE_MULTIPOLES>
817.39
51.86
7.79
1.34
18.52
3.98
0.03
-79.82
5.45
-6.41
1.61
2.9
-0.73
3.84

> <PUBCHEM_SHAPE_SELFOVERLAP>
1735.351

> <PUBCHEM_SHAPE_VOLUME>
459

> <PUBCHEM_COORDINATE_TYPE>
2
5
10

$$$$