10836448
  -OEChem-03242010103D

 61 64  0     1  0  0  0  0  0999 V2000
    4.4024   -1.1617   -1.5371 O   0  0  0  0  0  0  0  0  0  0  0  0
   -2.3021   -3.2410   -2.0550 O   0  0  0  0  0  0  0  0  0  0  0  0
   -3.1824   -1.6174    0.0536 O   0  0  0  0  0  0  0  0  0  0  0  0
   -4.9157    1.0914   -1.0370 O   0  0  0  0  0  0  0  0  0  0  0  0
    0.9961   -2.1071   -0.7945 N   0  0  0  0  0  0  0  0  0  0  0  0
    3.6208   -0.7737   -0.3974 C   0  0  0  0  0  0  0  0  0  0  0  0
    2.3514   -0.0299   -0.8734 C   0  0  0  0  0  0  0  0  0  0  0  0
    3.1894   -2.0614    0.3393 C   0  0  0  0  0  0  0  0  0  0  0  0
    1.3550   -0.9387   -1.6047 C   0  0  0  0  0  0  0  0  0  0  0  0
    2.1828   -2.9003   -0.4565 C   0  0  0  0  0  0  0  0  0  0  0  0
    0.0096   -2.9315   -1.4920 C   0  0  0  0  0  0  0  0  0  0  0  0
    4.5191    0.1629    0.4123 C   0  0  0  0  0  0  0  0  0  0  0  0
   -1.4039   -2.3549   -1.3810 C   0  0  2  0  0  0  0  0  0  0  0  0
    4.8868   -0.1765    1.7143 C   0  0  0  0  0  0  0  0  0  0  0  0
    4.9710    1.3562   -0.1514 C   0  0  0  0  0  0  0  0  0  0  0  0
   -1.8771   -2.1872    0.0612 C   0  0  0  0  0  0  0  0  0  0  0  0
    5.7062    0.6774    2.4528 C   0  0  0  0  0  0  0  0  0  0  0  0
    5.7904    2.2100    0.5870 C   0  0  0  0  0  0  0  0  0  0  0  0
    6.1580    1.8705    1.8891 C   0  0  0  0  0  0  0  0  0  0  0  0
   -3.5226   -0.8447    1.1316 C   0  0  0  0  0  0  0  0  0  0  0  0
   -3.8722    0.4960    0.9697 C   0  0  0  0  0  0  0  0  0  0  0  0
   -3.5180   -1.4153    2.4045 C   0  0  0  0  0  0  0  0  0  0  0  0
   -4.2171    1.2658    2.0807 C   0  0  0  0  0  0  0  0  0  0  0  0
   -3.8847    1.1111   -0.3502 C   0  0  0  0  0  0  0  0  0  0  0  0
   -3.8630   -0.6455    3.5154 C   0  0  0  0  0  0  0  0  0  0  0  0
   -4.2125    0.6950    3.3534 C   0  0  0  0  0  0  0  0  0  0  0  0
   -2.6835    1.7820   -0.9304 C   0  0  0  0  0  0  0  0  0  0  0  0
   -1.4945    1.8344   -0.2029 C   0  0  0  0  0  0  0  0  0  0  0  0
   -2.7503    2.3560   -2.2000 C   0  0  0  0  0  0  0  0  0  0  0  0
   -0.3723    2.4610   -0.7449 C   0  0  0  0  0  0  0  0  0  0  0  0
   -1.6279    2.9824   -2.7420 C   0  0  0  0  0  0  0  0  0  0  0  0
   -0.4390    3.0349   -2.0143 C   0  0  0  0  0  0  0  0  0  0  0  0
    1.8493    0.4187   -0.0060 H   0  0  0  0  0  0  0  0  0  0  0  0
    2.6087    0.7869   -1.5585 H   0  0  0  0  0  0  0  0  0  0  0  0
    4.0628   -2.6936    0.5449 H   0  0  0  0  0  0  0  0  0  0  0  0
    2.7199   -1.8130    1.3006 H   0  0  0  0  0  0  0  0  0  0  0  0
    0.4664   -0.3371   -1.8230 H   0  0  0  0  0  0  0  0  0  0  0  0
    1.7722   -1.2435   -2.5730 H   0  0  0  0  0  0  0  0  0  0  0  0
    2.6537   -3.3148   -1.3567 H   0  0  0  0  0  0  0  0  0  0  0  0
    1.8926   -3.7515    0.1724 H   0  0  0  0  0  0  0  0  0  0  0  0
    0.2769   -3.0940   -2.5450 H   0  0  0  0  0  0  0  0  0  0  0  0
   -0.0196   -3.9381   -1.0508 H   0  0  0  0  0  0  0  0  0  0  0  0
   -1.4831   -1.3979   -1.9070 H   0  0  0  0  0  0  0  0  0  0  0  0
    3.8485   -1.6804   -2.1420 H   0  0  0  0  0  0  0  0  0  0  0  0
    4.5716   -1.0945    2.1974 H   0  0  0  0  0  0  0  0  0  0  0  0
    4.7079    1.6353   -1.1677 H   0  0  0  0  0  0  0  0  0  0  0  0
   -1.9355   -3.1627    0.5580 H   0  0  0  0  0  0  0  0  0  0  0  0
   -1.1847   -1.5441    0.6178 H   0  0  0  0  0  0  0  0  0  0  0  0
    5.9947    0.4129    3.4660 H   0  0  0  0  0  0  0  0  0  0  0  0
    6.1448    3.1377    0.1473 H   0  0  0  0  0  0  0  0  0  0  0  0
   -2.2789   -4.0978   -1.5956 H   0  0  0  0  0  0  0  0  0  0  0  0
    6.7970    2.5347    2.4635 H   0  0  0  0  0  0  0  0  0  0  0  0
   -3.2568   -2.4605    2.5460 H   0  0  0  0  0  0  0  0  0  0  0  0
   -4.4918    2.3114    1.9675 H   0  0  0  0  0  0  0  0  0  0  0  0
   -3.8615   -1.0903    4.5062 H   0  0  0  0  0  0  0  0  0  0  0  0
   -4.4816    1.2943    4.2183 H   0  0  0  0  0  0  0  0  0  0  0  0
   -1.4019    1.3996    0.7876 H   0  0  0  0  0  0  0  0  0  0  0  0
   -3.6636    2.3289   -2.7881 H   0  0  0  0  0  0  0  0  0  0  0  0
    0.5514    2.5097   -0.1763 H   0  0  0  0  0  0  0  0  0  0  0  0
   -1.6794    3.4294   -3.7305 H   0  0  0  0  0  0  0  0  0  0  0  0
    0.4346    3.5236   -2.4356 H   0  0  0  0  0  0  0  0  0  0  0  0
  1  6  1  0  0  0  0
  1 44  1  0  0  0  0
  2 13  1  0  0  0  0
  2 51  1  0  0  0  0
  3 16  1  0  0  0  0
  3 20  1  0  0  0  0
  4 24  2  0  0  0  0
  5  9  1  0  0  0  0
  5 10  1  0  0  0  0
  5 11  1  0  0  0  0
  6  7  1  0  0  0  0
  6  8  1  0  0  0  0
  6 12  1  0  0  0  0
  7  9  1  0  0  0  0
  7 33  1  0  0  0  0
  7 34  1  0  0  0  0
  8 10  1  0  0  0  0
  8 35  1  0  0  0  0
  8 36  1  0  0  0  0
  9 37  1  0  0  0  0
  9 38  1  0  0  0  0
 10 39  1  0  0  0  0
 10 40  1  0  0  0  0
 11 13  1  0  0  0  0
 11 41  1  0  0  0  0
 11 42  1  0  0  0  0
 12 14  2  0  0  0  0
 12 15  1  0  0  0  0
 13 16  1  0  0  0  0
 13 43  1  0  0  0  0
 14 17  1  0  0  0  0
 14 45  1  0  0  0  0
 15 18  2  0  0  0  0
 15 46  1  0  0  0  0
 16 47  1  0  0  0  0
 16 48  1  0  0  0  0
 17 19  2  0  0  0  0
 17 49  1  0  0  0  0
 18 19  1  0  0  0  0
 18 50  1  0  0  0  0
 19 52  1  0  0  0  0
 20 21  1  0  0  0  0
 20 22  2  0  0  0  0
 21 23  2  0  0  0  0
 21 24  1  0  0  0  0
 22 25  1  0  0  0  0
 22 53  1  0  0  0  0
 23 26  1  0  0  0  0
 23 54  1  0  0  0  0
 24 27  1  0  0  0  0
 25 26  2  0  0  0  0
 25 55  1  0  0  0  0
 26 56  1  0  0  0  0
 27 28  2  0  0  0  0
 27 29  1  0  0  0  0
 28 30  1  0  0  0  0
 28 57  1  0  0  0  0
 29 31  2  0  0  0  0
 29 58  1  0  0  0  0
 30 32  2  0  0  0  0
 30 59  1  0  0  0  0
 31 32  1  0  0  0  0
 31 60  1  0  0  0  0
 32 61  1  0  0  0  0
M  END
> <PUBCHEM_COMPOUND_CID>
10836448

> <PUBCHEM_CONFORMER_RMSD>
1

> <PUBCHEM_CONFORMER_DIVERSEORDER>
1
312
44
97
332
196
308
199
369
376
137
453
208
323
218
197
423
182
83
53
288
270
427
142
126
316
227
233
356
343
272
16
12
176
189
422
85
286
226
200
135
449
232
211
153
350
358
103
464
31
294
124
457
23
221
269
180
268
471
298
319
392
212
195
106
370
363
331
121
168
108
401
431
29
266
271
379
238
156
389
172
375
260
415
76
455
167
252
438
261
164
341
338
301
420
399
359
114
372
444
385
468
192
347
357
35
140
220
292
424
147
274
447
384
450
403
242
170
408
240
78
248
222
262
335
353
188
391
290
77
217
117
394
207
68
228
181
239
92
360
432
73
400
246
345
127
231
349
91
263
190
296
230
322
390
387
136
462
439
80
63
151
87
267
51
209
204
178
446
122
333
330
203
115
249
295
451
55
279
154
49
277
90
7
145
245
214
395
310
215
100
95
276
340
466
81
393
443
320
219
329
409
138
433
418
382
46
58
417
64
155
119
336
20
304
82
275
255
139
456
250
243
383
402
419
169
303
185
141
459
201
334
34
93
75
107
317
163
361
146
112
425
284
302
223
42
50
152
378
25
327
224
259
22
65
225
314
67
89
437
348
325
470
373
299
149
251
134
388
430
386
412
102
469
285
380
36
465
118
313
14
366
79
131
371
61
173
460
413
9
213
15
281
426
458
109
318
247
32
352
254
21
210
454
406
6
37
174
414
150
461
130
84
60
159
13
264
177
105
452
70
116
183
405
328
321
125
186
157
62
166
463
40
306
411
291
311
428
472
404
175
104
289
344
354
198
235
398
57
241
193
101
278
133
315
54
364
184
337
297
179
26
293
43
148
362
11
28
253
191
161
346
421
435
120
442
416
86
160
113
205
19
326
282
381
171
355
132
265
367
206
71
305
17
30
441
410
229
2
123
429
436
39
47
467
52
448
88
377
257
99
8
24
56
440
194
94
365
351
10
27
66
59
368
162
374
69
309
38
18
234
96
407
144
128
258
287
98
397
396
244
158
307
236
445
72
273
187
216
324
110
33
165
256
202
111
339
74
280
3
129
342
237
143
48
41
283
434
300
45
5
4

> <PUBCHEM_MMFF94_PARTIAL_CHARGES>
46
1 -0.68
10 0.27
11 0.27
12 -0.14
13 0.28
14 -0.15
15 -0.15
16 0.28
17 -0.15
18 -0.15
19 -0.15
2 -0.68
20 0.08
21 0.09
22 -0.15
23 -0.15
24 0.4
25 -0.15
26 -0.15
27 0.09
28 -0.15
29 -0.15
3 -0.36
30 -0.15
31 -0.15
32 -0.15
4 -0.57
44 0.4
45 0.15
46 0.15
49 0.15
5 -0.81
50 0.15
51 0.4
52 0.15
53 0.15
54 0.15
55 0.15
56 0.15
57 0.15
58 0.15
59 0.15
6 0.42
60 0.15
61 0.15
9 0.27

> <PUBCHEM_EFFECTIVE_ROTOR_COUNT>
9.2

> <PUBCHEM_PHARMACOPHORE_FEATURES>
11
1 1 acceptor
1 1 donor
1 2 acceptor
1 2 donor
1 3 acceptor
1 4 acceptor
1 5 cation
6 12 14 15 17 18 19 rings
6 20 21 22 23 25 26 rings
6 27 28 29 30 31 32 rings
6 5 6 7 8 9 10 rings

> <PUBCHEM_HEAVY_ATOM_COUNT>
32

> <PUBCHEM_ATOM_DEF_STEREO_COUNT>
0

> <PUBCHEM_ATOM_UDEF_STEREO_COUNT>
1

> <PUBCHEM_BOND_DEF_STEREO_COUNT>
0

> <PUBCHEM_BOND_UDEF_STEREO_COUNT>
0

> <PUBCHEM_ISOTOPIC_ATOM_COUNT>
0

> <PUBCHEM_COMPONENT_COUNT>
1

> <PUBCHEM_CACTVS_TAUTO_COUNT>
1

> <PUBCHEM_CONFORMER_ID>
00A559E000000001

> <PUBCHEM_MMFF94_ENERGY>
101.6567

> <PUBCHEM_FEATURE_SELFOVERLAP>
55.826

> <PUBCHEM_SHAPE_FINGERPRINT>
10675989 125 16963204108562361893
11112241 14 18129945560139978737
11595378 159 17894629258341641692
11607047 74 16452316061867054749
11828532 37 16517110616755854921
12035758 1 17750820778634887745
12104220 4 16052427126305785048
12128747 34 17607805007096387482
12156800 1 16033705845421005919
12422481 6 18336275590975132576
12596602 18 17060331908148689669
12655387 17 17023202513550580961
13965767 371 18199486397130227942
14068700 675 17627212795991050087
14395042 24 17981055421057271963
144659 39 18116418281019784440
14725015 67 17248919936217594181
14840074 17 18191038974058735588
15163728 17 13972863614931822129
15324884 4 17977699462286518807
15351339 4 16321485743743701911
15513586 35 17832145296345731608
17349148 13 15140972729234896080
18393751 57 18341621399878675955
19309040 13 16343438249094964498
21304303 282 16589961873104925637
21458453 9 18188487016498705936
21795232 40 18199734994237906561
2838139 119 16415192412953524890
3380486 145 18410009961730973829
3459 110 18338504357085126060
376196 1 17540795219211561301
392239 28 18272083933540747064
4058900 60 11454244317970546591
469060 322 18263354944496565735
4742675 86 18199464372706375473
50009960 94 17099762783307405131
5252454 2 18202565077349112682
6004065 56 18411407415926083997
613672 6 17894634733881937173
9981440 41 18116133490502368271
9982175 41 17241314781886944572

> <PUBCHEM_SHAPE_MULTIPOLES>
630.09
13.08
3.92
3.23
15.4
0.45
2.12
3.93
10.66
-1.25
-3.04
-2.61
-0.13
2.72

> <PUBCHEM_SHAPE_SELFOVERLAP>
1355.371

> <PUBCHEM_SHAPE_VOLUME>
345.4

> <PUBCHEM_COORDINATE_TYPE>
2
5
10

$$$$