6450807
  -OEChem-03242010103D

 75 78  0     0  0  0  0  0  0999 V2000
   -9.9569   -0.4801   -0.6912 O   0  0  0  0  0  0  0  0  0  0  0  0
   -0.6936   -0.7373    0.1543 N   0  0  0  0  0  0  0  0  0  0  0  0
   -0.5149    1.4719    0.2940 N   0  0  0  0  0  0  0  0  0  0  0  0
    4.5501   -4.5048   -0.4131 N   0  0  0  0  0  0  0  0  0  0  0  0
    5.4797    3.8866    0.0976 N   0  0  0  0  0  0  0  0  0  0  0  0
    0.6441   -0.4655    0.0924 C   0  0  0  0  0  0  0  0  0  0  0  0
    0.7293    0.9042    0.1800 C   0  0  0  0  0  0  0  0  0  0  0  0
    1.6428   -1.4969   -0.0378 C   0  0  0  0  0  0  0  0  0  0  0  0
    1.9449    1.6685    0.1586 C   0  0  0  0  0  0  0  0  0  0  0  0
   -1.3494    0.4563    0.2749 C   0  0  0  0  0  0  0  0  0  0  0  0
    3.5741   -3.4945   -0.2872 C   0  0  0  0  0  0  0  0  0  0  0  0
    5.5827   -4.7121    0.5545 C   0  0  0  0  0  0  0  0  0  0  0  0
   -2.7870    0.5343    0.3666 C   0  0  0  0  0  0  0  0  0  0  0  0
    4.3076    3.1512    0.1177 C   0  0  0  0  0  0  0  0  0  0  0  0
    1.6286   -2.3467   -1.1439 C   0  0  0  0  0  0  0  0  0  0  0  0
    2.6227   -1.6461    0.9437 C   0  0  0  0  0  0  0  0  0  0  0  0
    6.4149    3.8732   -1.0064 C   0  0  0  0  0  0  0  0  0  0  0  0
    2.2793    2.4780    1.2442 C   0  0  0  0  0  0  0  0  0  0  0  0
    2.7919    1.6004   -0.9475 C   0  0  0  0  0  0  0  0  0  0  0  0
    2.5941   -3.3454   -1.2686 C   0  0  0  0  0  0  0  0  0  0  0  0
    3.5883   -2.6449    0.8190 C   0  0  0  0  0  0  0  0  0  0  0  0
    3.4605    3.2193    1.2238 C   0  0  0  0  0  0  0  0  0  0  0  0
    3.9732    2.3417   -0.9681 C   0  0  0  0  0  0  0  0  0  0  0  0
   -3.5794   -0.4294   -0.2570 C   0  0  0  0  0  0  0  0  0  0  0  0
   -3.3846    1.5735    1.0800 C   0  0  0  0  0  0  0  0  0  0  0  0
    6.6824   -3.6797    0.3440 C   0  0  0  0  0  0  0  0  0  0  0  0
    6.1218   -6.1310    0.4272 C   0  0  0  0  0  0  0  0  0  0  0  0
    7.2640    2.6113   -0.9297 C   0  0  0  0  0  0  0  0  0  0  0  0
    7.2784    5.1270   -0.9570 C   0  0  0  0  0  0  0  0  0  0  0  0
   -5.5669    0.6848    0.5463 C   0  0  0  0  0  0  0  0  0  0  0  0
   -4.9693   -0.3542   -0.1672 C   0  0  0  0  0  0  0  0  0  0  0  0
   -4.7745    1.6487    1.1699 C   0  0  0  0  0  0  0  0  0  0  0  0
   -7.0162    0.7652    0.6380 C   0  0  0  0  0  0  0  0  0  0  0  0
   -7.8809   -0.2539    0.4304 C   0  0  0  0  0  0  0  0  0  0  0  0
   -9.3657   -0.1264    0.5515 C   0  0  0  0  0  0  0  0  0  0  0  0
  -11.3738   -0.3794   -0.6427 C   0  0  0  0  0  0  0  0  0  0  0  0
  -11.9421   -0.7676   -1.9911 C   0  0  0  0  0  0  0  0  0  0  0  0
   -1.1127   -1.6580    0.1305 H   0  0  0  0  0  0  0  0  0  0  0  0
    5.1949   -4.6376    1.5773 H   0  0  0  0  0  0  0  0  0  0  0  0
    0.8745   -2.2436   -1.9207 H   0  0  0  0  0  0  0  0  0  0  0  0
    2.6460   -0.9980    1.8167 H   0  0  0  0  0  0  0  0  0  0  0  0
    5.8914    3.9125   -1.9689 H   0  0  0  0  0  0  0  0  0  0  0  0
    1.6310    2.5410    2.1150 H   0  0  0  0  0  0  0  0  0  0  0  0
    2.5455    0.9829   -1.8082 H   0  0  0  0  0  0  0  0  0  0  0  0
    4.5526   -5.0433   -1.2726 H   0  0  0  0  0  0  0  0  0  0  0  0
    2.5725   -4.0007   -2.1356 H   0  0  0  0  0  0  0  0  0  0  0  0
    4.3191   -2.7167    1.6169 H   0  0  0  0  0  0  0  0  0  0  0  0
    5.7267    4.4032    0.9350 H   0  0  0  0  0  0  0  0  0  0  0  0
    3.7090    3.8457    2.0768 H   0  0  0  0  0  0  0  0  0  0  0  0
    4.5865    2.2535   -1.8583 H   0  0  0  0  0  0  0  0  0  0  0  0
   -3.1458   -1.2417   -0.8350 H   0  0  0  0  0  0  0  0  0  0  0  0
   -2.7854    2.3332    1.5763 H   0  0  0  0  0  0  0  0  0  0  0  0
    7.4928   -3.8304    1.0655 H   0  0  0  0  0  0  0  0  0  0  0  0
    6.3303   -2.6507    0.4587 H   0  0  0  0  0  0  0  0  0  0  0  0
    7.1132   -3.7626   -0.6609 H   0  0  0  0  0  0  0  0  0  0  0  0
    6.5479   -6.3102   -0.5665 H   0  0  0  0  0  0  0  0  0  0  0  0
    5.3241   -6.8665    0.5807 H   0  0  0  0  0  0  0  0  0  0  0  0
    6.9039   -6.3205    1.1699 H   0  0  0  0  0  0  0  0  0  0  0  0
    7.9920    2.5882   -1.7480 H   0  0  0  0  0  0  0  0  0  0  0  0
    6.6710    1.6946   -0.9939 H   0  0  0  0  0  0  0  0  0  0  0  0
    7.8220    2.5690    0.0131 H   0  0  0  0  0  0  0  0  0  0  0  0
    7.8550    5.1795   -0.0265 H   0  0  0  0  0  0  0  0  0  0  0  0
    6.6588    6.0289   -1.0115 H   0  0  0  0  0  0  0  0  0  0  0  0
    7.9837    5.1497   -1.7944 H   0  0  0  0  0  0  0  0  0  0  0  0
   -5.5463   -1.1129   -0.6879 H   0  0  0  0  0  0  0  0  0  0  0  0
   -5.2224    2.4650    1.7316 H   0  0  0  0  0  0  0  0  0  0  0  0
   -7.4203    1.7381    0.9104 H   0  0  0  0  0  0  0  0  0  0  0  0
   -7.5244   -1.2506    0.1866 H   0  0  0  0  0  0  0  0  0  0  0  0
   -9.6560    0.8960    0.8204 H   0  0  0  0  0  0  0  0  0  0  0  0
   -9.7190   -0.8070    1.3347 H   0  0  0  0  0  0  0  0  0  0  0  0
  -11.6646    0.6495   -0.4029 H   0  0  0  0  0  0  0  0  0  0  0  0
  -11.7667   -1.0495    0.1301 H   0  0  0  0  0  0  0  0  0  0  0  0
  -11.5496   -0.1144   -2.7775 H   0  0  0  0  0  0  0  0  0  0  0  0
  -11.6508   -1.7904   -2.2524 H   0  0  0  0  0  0  0  0  0  0  0  0
  -13.0337   -0.7012   -1.9892 H   0  0  0  0  0  0  0  0  0  0  0  0
  1 35  1  0  0  0  0
  1 36  1  0  0  0  0
  2  6  1  0  0  0  0
  2 10  1  0  0  0  0
  2 38  1  0  0  0  0
  3  7  1  0  0  0  0
  3 10  2  0  0  0  0
  4 11  1  0  0  0  0
  4 12  1  0  0  0  0
  4 45  1  0  0  0  0
  5 14  1  0  0  0  0
  5 17  1  0  0  0  0
  5 48  1  0  0  0  0
  6  7  2  0  0  0  0
  6  8  1  0  0  0  0
  7  9  1  0  0  0  0
  8 15  2  0  0  0  0
  8 16  1  0  0  0  0
  9 18  2  0  0  0  0
  9 19  1  0  0  0  0
 10 13  1  0  0  0  0
 11 20  2  0  0  0  0
 11 21  1  0  0  0  0
 12 26  1  0  0  0  0
 12 27  1  0  0  0  0
 12 39  1  0  0  0  0
 13 24  2  0  0  0  0
 13 25  1  0  0  0  0
 14 22  2  0  0  0  0
 14 23  1  0  0  0  0
 15 20  1  0  0  0  0
 15 40  1  0  0  0  0
 16 21  2  0  0  0  0
 16 41  1  0  0  0  0
 17 28  1  0  0  0  0
 17 29  1  0  0  0  0
 17 42  1  0  0  0  0
 18 22  1  0  0  0  0
 18 43  1  0  0  0  0
 19 23  2  0  0  0  0
 19 44  1  0  0  0  0
 20 46  1  0  0  0  0
 21 47  1  0  0  0  0
 22 49  1  0  0  0  0
 23 50  1  0  0  0  0
 24 31  1  0  0  0  0
 24 51  1  0  0  0  0
 25 32  2  0  0  0  0
 25 52  1  0  0  0  0
 26 53  1  0  0  0  0
 26 54  1  0  0  0  0
 26 55  1  0  0  0  0
 27 56  1  0  0  0  0
 27 57  1  0  0  0  0
 27 58  1  0  0  0  0
 28 59  1  0  0  0  0
 28 60  1  0  0  0  0
 28 61  1  0  0  0  0
 29 62  1  0  0  0  0
 29 63  1  0  0  0  0
 29 64  1  0  0  0  0
 30 31  2  0  0  0  0
 30 32  1  0  0  0  0
 30 33  1  0  0  0  0
 31 65  1  0  0  0  0
 32 66  1  0  0  0  0
 33 34  2  0  0  0  0
 33 67  1  0  0  0  0
 34 35  1  0  0  0  0
 34 68  1  0  0  0  0
 35 69  1  0  0  0  0
 35 70  1  0  0  0  0
 36 37  1  0  0  0  0
 36 71  1  0  0  0  0
 36 72  1  0  0  0  0
 37 73  1  0  0  0  0
 37 74  1  0  0  0  0
 37 75  1  0  0  0  0
M  END
> <PUBCHEM_COMPOUND_CID>
6450807

> <PUBCHEM_CONFORMER_RMSD>
1.2

> <PUBCHEM_CONFORMER_DIVERSEORDER>
1
3
2
4

> <PUBCHEM_MMFF94_PARTIAL_CHARGES>
49
1 -0.56
10 0.13
11 0.1
12 0.37
13 0.05
14 0.1
15 -0.15
16 -0.15
17 0.37
18 -0.15
19 -0.15
2 0.03
20 -0.15
21 -0.15
22 -0.15
23 -0.15
24 -0.15
25 -0.15
3 -0.57
30 0.03
31 -0.15
32 -0.15
33 -0.18
34 -0.29
35 0.42
36 0.28
38 0.27
4 -0.87
40 0.15
41 0.15
43 0.15
44 0.15
45 0.4
46 0.15
47 0.15
48 0.4
49 0.15
5 -0.87
50 0.15
51 0.15
52 0.15
6 -0.2
65 0.15
66 0.15
67 0.15
68 0.15
7 0.17
8 0.05
9 0.05

> <PUBCHEM_EFFECTIVE_ROTOR_COUNT>
11

> <PUBCHEM_PHARMACOPHORE_FEATURES>
13
1 1 acceptor
1 2 donor
1 4 cation
1 4 donor
1 5 cation
1 5 donor
3 12 26 27 hydrophobe
3 17 28 29 hydrophobe
3 2 3 10 cation
5 2 3 6 7 10 rings
6 13 24 25 30 31 32 rings
6 8 11 15 16 20 21 rings
6 9 14 18 19 22 23 rings

> <PUBCHEM_HEAVY_ATOM_COUNT>
37

> <PUBCHEM_ATOM_DEF_STEREO_COUNT>
0

> <PUBCHEM_ATOM_UDEF_STEREO_COUNT>
0

> <PUBCHEM_BOND_DEF_STEREO_COUNT>
1

> <PUBCHEM_BOND_UDEF_STEREO_COUNT>
0

> <PUBCHEM_ISOTOPIC_ATOM_COUNT>
0

> <PUBCHEM_COMPONENT_COUNT>
1

> <PUBCHEM_CACTVS_TAUTO_COUNT>
1

> <PUBCHEM_CONFORMER_ID>
00626E7700000001

> <PUBCHEM_MMFF94_ENERGY>
110.6276

> <PUBCHEM_FEATURE_SELFOVERLAP>
65.971

> <PUBCHEM_SHAPE_FINGERPRINT>
10050765 1 18337676287401448505
10165383 225 18337956813211544212
10190206 1 17911511309602213012
10411042 1 18122345675660321874
10677351 14 18412829067618149197
11297750 10 17897163525201132532
11411753 29 18188205387140010573
11763715 3 17544783139960506742
12522641 33 18335986470835192221
13383668 362 18200860851232012891
13540713 5 18057903354537525321
14118638 360 18272094899030311657
15347591 1 18410296866295562937
15439362 3 18335704962057879984
15773216 30 18409453583567950310
15927050 60 18269840990250339094
16993427 108 17899692354553496146
19315958 150 18334580179195884339
19841028 212 18410292511425532843
20771845 140 16845289402450113638
20771845 171 18261116295994352196
20771845 65 18200871756485721674
21360443 120 18337680818929140116
21792938 169 18340757178652862358
21927370 108 17833566600457072482
22311459 1 18339364179441937505
23523766 6 18265054618471136878
24771750 20 18411708690516665702
249999 5 18410015438272809480
3411729 13 18335142016235993360
4073 2 18262243334763523259
4149490 64 18335425681899544635
4516262 110 18336826506567730493
45377200 153 15840987910545440301
5265222 85 17833005110982701940
5385378 56 18410015459616231816
57816332 2 18269282412225063206
59521660 218 18409446986698501071
6004065 56 18338802187123655618
6679774 75 18262504997494084426
9962374 69 18342731889426925447

> <PUBCHEM_SHAPE_MULTIPOLES>
735.65
30.32
7.25
1.22
106.79
5.63
-0.21
1.06
-10.11
-31.16
-0.42
0.78
-0.24
-3.73

> <PUBCHEM_SHAPE_SELFOVERLAP>
1573.066

> <PUBCHEM_SHAPE_VOLUME>
411.5

> <PUBCHEM_COORDINATE_TYPE>
2
5
10

$$$$