90655526
  -OEChem-03242010103D

 68 70  0     0  0  0  0  0  0999 V2000
    9.2798    1.1064   -0.3940 O   0  0  0  0  0  0  0  0  0  0  0  0
   -8.2146    2.6676    0.3140 O   0  0  0  0  0  0  0  0  0  0  0  0
    7.6790    3.3556   -0.6228 O   0  0  0  0  0  0  0  0  0  0  0  0
   -5.9558    2.3425    1.8844 O   0  0  0  0  0  0  0  0  0  0  0  0
    8.1338   -1.3323    0.2459 O   0  0  0  0  0  0  0  0  0  0  0  0
   -8.7458    0.8587   -1.7146 O   0  0  0  0  0  0  0  0  0  0  0  0
    0.9402    0.6419    0.8344 O   0  0  0  0  0  0  0  0  0  0  0  0
   -3.0482   -3.8470   -1.1487 O   0  0  0  0  0  0  0  0  0  0  0  0
    5.1813    0.8221    0.2157 C   0  0  0  0  0  0  0  0  0  0  0  0
   -5.6397   -0.5189   -0.3679 C   0  0  0  0  0  0  0  0  0  0  0  0
    0.8155   -1.6731    0.4736 C   0  0  0  0  0  0  0  0  0  0  0  0
   -1.2054   -2.8847   -0.0610 C   0  0  0  0  0  0  0  0  0  0  0  0
    7.9345    1.0135   -0.1929 C   0  0  0  0  0  0  0  0  0  0  0  0
   -7.3687    1.6222    0.0896 C   0  0  0  0  0  0  0  0  0  0  0  0
    7.1315    2.1480   -0.3099 C   0  0  0  0  0  0  0  0  0  0  0  0
   -6.2327    1.4611    0.8830 C   0  0  0  0  0  0  0  0  0  0  0  0
    7.3609   -0.2169    0.1285 C   0  0  0  0  0  0  0  0  0  0  0  0
   -7.6400    0.7127   -0.9326 C   0  0  0  0  0  0  0  0  0  0  0  0
    5.7549    2.0523   -0.1056 C   0  0  0  0  0  0  0  0  0  0  0  0
   -5.3682    0.3906    0.6543 C   0  0  0  0  0  0  0  0  0  0  0  0
    5.9842   -0.3125    0.3325 C   0  0  0  0  0  0  0  0  0  0  0  0
   -6.7757   -0.3580   -1.1612 C   0  0  0  0  0  0  0  0  0  0  0  0
   -0.5133   -1.6787    0.0489 C   0  0  0  0  0  0  0  0  0  0  0  0
    3.7271    0.7222    0.4323 C   0  0  0  0  0  0  0  0  0  0  0  0
   -4.7253   -1.6490   -0.6095 C   0  0  0  0  0  0  0  0  0  0  0  0
    1.5383   -0.4163    0.5867 C   0  0  0  0  0  0  0  0  0  0  0  0
   -2.5902   -2.8908   -0.5049 C   0  0  0  0  0  0  0  0  0  0  0  0
    1.4520   -2.8738    0.7883 C   0  0  0  0  0  0  0  0  0  0  0  0
   -0.5688   -4.0854    0.2537 C   0  0  0  0  0  0  0  0  0  0  0  0
    3.0249   -0.4185    0.3654 C   0  0  0  0  0  0  0  0  0  0  0  0
   -3.4506   -1.6979   -0.1950 C   0  0  0  0  0  0  0  0  0  0  0  0
    0.7599   -4.0799    0.6781 C   0  0  0  0  0  0  0  0  0  0  0  0
    9.7501    0.9060   -1.7250 C   0  0  0  0  0  0  0  0  0  0  0  0
   -9.2829    2.4495    1.2329 C   0  0  0  0  0  0  0  0  0  0  0  0
    6.7877    4.4646   -0.7229 C   0  0  0  0  0  0  0  0  0  0  0  0
   -4.7748    2.1050    2.6480 C   0  0  0  0  0  0  0  0  0  0  0  0
    7.4685   -2.5498    0.5771 C   0  0  0  0  0  0  0  0  0  0  0  0
   -8.6035    1.6413   -2.8986 C   0  0  0  0  0  0  0  0  0  0  0  0
    5.0845    2.9019   -0.1858 H   0  0  0  0  0  0  0  0  0  0  0  0
   -4.4986    0.2268    1.2766 H   0  0  0  0  0  0  0  0  0  0  0  0
    5.5183   -1.2482    0.6130 H   0  0  0  0  0  0  0  0  0  0  0  0
   -6.9966   -1.0612   -1.9613 H   0  0  0  0  0  0  0  0  0  0  0  0
   -0.9728   -0.7354   -0.2329 H   0  0  0  0  0  0  0  0  0  0  0  0
    3.2279    1.6587    0.6688 H   0  0  0  0  0  0  0  0  0  0  0  0
   -5.1428   -2.4660   -1.1930 H   0  0  0  0  0  0  0  0  0  0  0  0
    2.4723   -2.9134    1.1577 H   0  0  0  0  0  0  0  0  0  0  0  0
   -1.0936   -5.0344    0.1798 H   0  0  0  0  0  0  0  0  0  0  0  0
    3.4873   -1.3533    0.0768 H   0  0  0  0  0  0  0  0  0  0  0  0
   -3.0064   -0.8993    0.3832 H   0  0  0  0  0  0  0  0  0  0  0  0
    1.2523   -5.0142    0.9319 H   0  0  0  0  0  0  0  0  0  0  0  0
   10.8384    1.0112   -1.7231 H   0  0  0  0  0  0  0  0  0  0  0  0
    9.3276    1.6567   -2.4002 H   0  0  0  0  0  0  0  0  0  0  0  0
    9.4968   -0.0994   -2.0761 H   0  0  0  0  0  0  0  0  0  0  0  0
   -9.8657    3.3717    1.3055 H   0  0  0  0  0  0  0  0  0  0  0  0
   -8.8932    2.2032    2.2257 H   0  0  0  0  0  0  0  0  0  0  0  0
   -9.9390    1.6485    0.8779 H   0  0  0  0  0  0  0  0  0  0  0  0
    6.3034    4.6819    0.2353 H   0  0  0  0  0  0  0  0  0  0  0  0
    7.3927    5.3411   -0.9777 H   0  0  0  0  0  0  0  0  0  0  0  0
    6.0661    4.3310   -1.5361 H   0  0  0  0  0  0  0  0  0  0  0  0
   -4.8351    1.1631    3.2040 H   0  0  0  0  0  0  0  0  0  0  0  0
   -3.8721    2.1727    2.0311 H   0  0  0  0  0  0  0  0  0  0  0  0
   -4.7082    2.9058    3.3921 H   0  0  0  0  0  0  0  0  0  0  0  0
    6.7574   -2.8481   -0.2010 H   0  0  0  0  0  0  0  0  0  0  0  0
    7.0097   -2.5027    1.5706 H   0  0  0  0  0  0  0  0  0  0  0  0
    8.2341   -3.3317    0.6205 H   0  0  0  0  0  0  0  0  0  0  0  0
   -8.3080    2.6657   -2.6505 H   0  0  0  0  0  0  0  0  0  0  0  0
   -7.8667    1.1896   -3.5703 H   0  0  0  0  0  0  0  0  0  0  0  0
   -9.5703    1.6702   -3.4083 H   0  0  0  0  0  0  0  0  0  0  0  0
  1 13  1  0  0  0  0
  1 33  1  0  0  0  0
  2 14  1  0  0  0  0
  2 34  1  0  0  0  0
  3 15  1  0  0  0  0
  3 35  1  0  0  0  0
  4 16  1  0  0  0  0
  4 36  1  0  0  0  0
  5 17  1  0  0  0  0
  5 37  1  0  0  0  0
  6 18  1  0  0  0  0
  6 38  1  0  0  0  0
  7 26  2  0  0  0  0
  8 27  2  0  0  0  0
  9 19  2  0  0  0  0
  9 21  1  0  0  0  0
  9 24  1  0  0  0  0
 10 20  2  0  0  0  0
 10 22  1  0  0  0  0
 10 25  1  0  0  0  0
 11 23  2  0  0  0  0
 11 26  1  0  0  0  0
 11 28  1  0  0  0  0
 12 23  1  0  0  0  0
 12 27  1  0  0  0  0
 12 29  2  0  0  0  0
 13 15  2  0  0  0  0
 13 17  1  0  0  0  0
 14 16  2  0  0  0  0
 14 18  1  0  0  0  0
 15 19  1  0  0  0  0
 16 20  1  0  0  0  0
 17 21  2  0  0  0  0
 18 22  2  0  0  0  0
 19 39  1  0  0  0  0
 20 40  1  0  0  0  0
 21 41  1  0  0  0  0
 22 42  1  0  0  0  0
 23 43  1  0  0  0  0
 24 30  2  0  0  0  0
 24 44  1  0  0  0  0
 25 31  2  0  0  0  0
 25 45  1  0  0  0  0
 26 30  1  0  0  0  0
 27 31  1  0  0  0  0
 28 32  2  0  0  0  0
 28 46  1  0  0  0  0
 29 32  1  0  0  0  0
 29 47  1  0  0  0  0
 30 48  1  0  0  0  0
 31 49  1  0  0  0  0
 32 50  1  0  0  0  0
 33 51  1  0  0  0  0
 33 52  1  0  0  0  0
 33 53  1  0  0  0  0
 34 54  1  0  0  0  0
 34 55  1  0  0  0  0
 34 56  1  0  0  0  0
 35 57  1  0  0  0  0
 35 58  1  0  0  0  0
 35 59  1  0  0  0  0
 36 60  1  0  0  0  0
 36 61  1  0  0  0  0
 36 62  1  0  0  0  0
 37 63  1  0  0  0  0
 37 64  1  0  0  0  0
 37 65  1  0  0  0  0
 38 66  1  0  0  0  0
 38 67  1  0  0  0  0
 38 68  1  0  0  0  0
M  END
> <PUBCHEM_COMPOUND_CID>
90655526

> <PUBCHEM_CONFORMER_RMSD>
1.2

> <PUBCHEM_CONFORMER_DIVERSEORDER>
41
9
93
140
113
4
86
135
99
80
70
50
108
30
51
67
107
72
105
13
96
145
88
102
65
95
85
63
114
18
116
87
84
57
27
73
47
92
3
122
14
130
106
141
139
79
94
137
74
104
83
132
22
110
25
90
2
31
15
20
133
100
71
118
128
112
24
82
35
69
39
143
144
1
124
53
77
81
44
5
43
146
109
55
38
16
134
91
119
68
125
61
32
23
142
129
11
29
127
89
121
98
120
6
117
78
115
138
40
19
131
60
103
111
97
52
7
76
21
64
136
54
62
126
101
123
59
12
26
34
8
56
48
37
42
49
10
17
28
75
66
58
46
36
45
33

> <PUBCHEM_MMFF94_PARTIAL_CHARGES>
50
1 -0.36
10 0.03
11 0.09
12 0.09
13 0.08
14 0.08
15 0.08
16 0.08
17 0.08
18 0.08
19 -0.15
2 -0.36
20 -0.15
21 -0.15
22 -0.15
23 -0.15
24 -0.18
25 -0.18
26 0.47
27 0.47
28 -0.15
29 -0.15
3 -0.36
30 -0.14
31 -0.14
32 -0.15
33 0.28
34 0.28
35 0.28
36 0.28
37 0.28
38 0.28
39 0.15
4 -0.36
40 0.15
41 0.15
42 0.15
43 0.15
44 0.15
45 0.15
46 0.15
47 0.15
48 0.15
49 0.15
5 -0.36
50 0.15
6 -0.36
7 -0.57
8 -0.57
9 0.03

> <PUBCHEM_EFFECTIVE_ROTOR_COUNT>
12

> <PUBCHEM_PHARMACOPHORE_FEATURES>
11
1 1 acceptor
1 2 acceptor
1 3 acceptor
1 4 acceptor
1 5 acceptor
1 6 acceptor
1 7 acceptor
1 8 acceptor
6 10 14 16 18 20 22 rings
6 11 12 23 28 29 32 rings
6 9 13 15 17 19 21 rings

> <PUBCHEM_HEAVY_ATOM_COUNT>
38

> <PUBCHEM_ATOM_DEF_STEREO_COUNT>
0

> <PUBCHEM_ATOM_UDEF_STEREO_COUNT>
0

> <PUBCHEM_BOND_DEF_STEREO_COUNT>
2

> <PUBCHEM_BOND_UDEF_STEREO_COUNT>
0

> <PUBCHEM_ISOTOPIC_ATOM_COUNT>
0

> <PUBCHEM_COMPONENT_COUNT>
1

> <PUBCHEM_CACTVS_TAUTO_COUNT>
1

> <PUBCHEM_CONFORMER_ID>
05674B2600000029

> <PUBCHEM_MMFF94_ENERGY>
181.9856

> <PUBCHEM_FEATURE_SELFOVERLAP>
55.848

> <PUBCHEM_SHAPE_FINGERPRINT>
10190206 1 17703799106572003881
11181472 205 18410578388532101446
11408170 132 18338804520319233724
1200032 147 18260827085786888403
12144603 126 18058735698563508105
13248334 5 18122342380893853019
14664723 55 18411420630827842045
15064981 113 17274832375952388078
15064981 194 17971771101742432926
15183329 4 18411135883809030618
15276724 80 18260822705489445284
15289351 153 18343013359491367314
15439362 3 18339644443069162935
15781502 685 17131557141418927634
15890870 6 18341894070382640227
16992727 255 18412547634393612720
19303781 99 10303803281778357321
21585482 111 18262512573447395125
22149856 69 13551739692078509422
23569914 152 17914920677140325646
3711267 37 18188216497867295716
3918712 181 18410007741264666581
4169191 19 18409163290865222799
4366758 26 18410862040430665817
4516262 110 18335413527110532647
6328613 192 18338234976688413002
6698420 124 18261392278029820498
9953998 17 14056717955086554939

> <PUBCHEM_SHAPE_MULTIPOLES>
735.07
35.87
5.01
1.55
9.67
1.92
0.23
-35.47
9.9
1.8
-0.13
-3.99
-1.11
-3.66

> <PUBCHEM_SHAPE_SELFOVERLAP>
1571.088

> <PUBCHEM_SHAPE_VOLUME>
411.3

> <PUBCHEM_COORDINATE_TYPE>
2
5
10

$$$$