11
 OpenBabel03292022243D

 95 98  0  0  1  0  0  0  0  0999 V2000
   16.7177   -0.7612   10.4483 C   0  0  0  0  0  0  0  0  0  0  0  0
   15.8168    0.2688   10.8637 O   0  0  0  0  0  0  0  0  0  0  0  0
   15.3781    1.0936    9.8561 C   0  0  0  0  0  0  0  0  0  0  0  0
   15.0089    0.5292    8.6172 C   0  0  0  0  0  0  0  0  0  0  0  0
   14.6783    1.3227    7.5173 C   0  0  0  0  0  0  0  0  0  0  0  0
   14.5111    0.6866    6.1473 C   0  0  0  0  0  0  0  0  0  0  0  0
   13.1323    0.8584    5.5179 C   0  0  0  0  0  0  0  0  0  0  0  0
   12.9564    0.2330    4.1414 C   0  0  0  0  0  0  0  0  0  0  0  0
   12.1652    0.6837    3.3189 O   0  0  0  0  0  0  0  0  0  0  0  0
   13.6763   -0.9107    3.9566 O   0  0  0  0  0  0  0  0  0  0  0  0
   13.4365   -1.6345    2.7171 C   0  0  1  0  0  0  0  0  0  0  0  0
   14.2164   -1.0072    1.5570 C   0  0  0  0  0  0  0  0  0  0  0  0
   14.1158   -1.8121    0.2557 C   0  0  0  0  0  0  0  0  0  0  0  0
   14.4370   -3.3131    0.4155 C   0  0  2  0  0  0  0  0  0  0  0  0
   14.1987   -4.1318   -0.8126 N   0  0  0  0  0  0  0  0  0  0  0  0
   12.8121   -4.0176   -1.2957 C   0  0  0  0  0  0  0  0  0  0  0  0
   15.1793   -3.9233   -1.9285 C   0  0  1  0  0  0  0  0  0  0  0  0
   16.6418   -4.1727   -1.4813 C   0  0  0  0  0  0  0  0  0  0  0  0
   17.6590   -4.1440   -2.6253 C   0  0  0  0  0  0  0  0  0  0  0  0
   17.2888   -5.1122   -3.7447 C   0  0  2  0  0  0  0  0  0  0  0  0
   18.2114   -5.0031   -4.8456 O   0  0  0  0  0  0  0  0  0  0  0  0
   19.3694   -5.7034   -4.7062 C   0  0  0  0  0  0  0  0  0  0  0  0
   19.7051   -6.3308   -3.7231 O   0  0  0  0  0  0  0  0  0  0  0  0
   20.1849   -5.6554   -5.9520 C   0  0  0  0  0  0  0  0  0  0  0  0
   21.4085   -6.3312   -5.9485 C   0  0  0  0  0  0  0  0  0  0  0  0
   22.1972   -6.3744   -7.1020 C   0  0  0  0  0  0  0  0  0  0  0  0
   23.4060   -7.0264   -7.1632 O   0  0  0  0  0  0  0  0  0  0  0  0
   23.6572   -8.0007   -6.1555 C   0  0  0  0  0  0  0  0  0  0  0  0
   21.7620   -5.7189   -8.2749 C   0  0  0  0  0  0  0  0  0  0  0  0
   22.6384   -5.7660   -9.3372 O   0  0  0  0  0  0  0  0  0  0  0  0
   22.0661   -5.9435  -10.6279 C   0  0  0  0  0  0  0  0  0  0  0  0
   20.5374   -5.0132   -8.2737 C   0  0  0  0  0  0  0  0  0  0  0  0
   20.1794   -4.3551   -9.4197 O   0  0  0  0  0  0  0  0  0  0  0  0
   18.9305   -3.6774   -9.4466 C   0  0  0  0  0  0  0  0  0  0  0  0
   19.7604   -4.9929   -7.1067 C   0  0  0  0  0  0  0  0  0  0  0  0
   15.9011   -4.7603   -4.2639 C   0  0  0  0  0  0  0  0  0  0  0  0
   14.8600   -4.8343   -3.1500 C   0  0  0  0  0  0  0  0  0  0  0  0
   13.7164   -3.9231    1.6458 C   0  0  0  0  0  0  0  0  0  0  0  0
   13.8909   -3.0834    2.9155 C   0  0  0  0  0  0  0  0  0  0  0  0
   14.6222    2.7052    7.7178 C   0  0  0  0  0  0  0  0  0  0  0  0
   14.8977    3.2914    8.9762 C   0  0  0  0  0  0  0  0  0  0  0  0
   14.7699    4.6616    8.9315 O   0  0  0  0  0  0  0  0  0  0  0  0
   15.0646    5.4370   10.0857 C   0  0  0  0  0  0  0  0  0  0  0  0
   15.2790    2.4833   10.0707 C   0  0  0  0  0  0  0  0  0  0  0  0
   15.5200    3.1341   11.2501 O   0  0  0  0  0  0  0  0  0  0  0  0
   16.0625    2.4610   12.3729 C   0  0  0  0  0  0  0  0  0  0  0  0
   17.5890   -0.7401   11.1087 H   0  0  0  0  0  0  0  0  0  0  0  0
   17.0901   -0.6518    9.4235 H   0  0  0  0  0  0  0  0  0  0  0  0
   16.2195   -1.7281   10.5579 H   0  0  0  0  0  0  0  0  0  0  0  0
   15.0106   -0.5524    8.5026 H   0  0  0  0  0  0  0  0  0  0  0  0
   14.7392   -0.3842    6.2243 H   0  0  0  0  0  0  0  0  0  0  0  0
   15.2816    1.1028    5.4860 H   0  0  0  0  0  0  0  0  0  0  0  0
   12.9267    1.9299    5.4026 H   0  0  0  0  0  0  0  0  0  0  0  0
   12.3588    0.4420    6.1728 H   0  0  0  0  0  0  0  0  0  0  0  0
   12.3598   -1.6367    2.4992 H   0  0  0  0  0  0  0  0  0  0  0  0
   15.2684   -0.8891    1.8431 H   0  0  0  0  0  0  0  0  0  0  0  0
   13.8468    0.0079    1.3690 H   0  0  0  0  0  0  0  0  0  0  0  0
   14.8024   -1.3703   -0.4767 H   0  0  0  0  0  0  0  0  0  0  0  0
   13.1036   -1.6754   -0.1394 H   0  0  0  0  0  0  0  0  0  0  0  0
   15.4968   -3.3889    0.6807 H   0  0  0  0  0  0  0  0  0  0  0  0
   12.0750   -4.0902   -0.4925 H   0  0  0  0  0  0  0  0  0  0  0  0
   12.5581   -4.8433   -1.9681 H   0  0  0  0  0  0  0  0  0  0  0  0
   12.6383   -3.0755   -1.8275 H   0  0  0  0  0  0  0  0  0  0  0  0
   15.1059   -2.8835   -2.2741 H   0  0  0  0  0  0  0  0  0  0  0  0
   16.7095   -5.1428   -0.9725 H   0  0  0  0  0  0  0  0  0  0  0  0
   16.9562   -3.4077   -0.7639 H   0  0  0  0  0  0  0  0  0  0  0  0
   18.6540   -4.3837   -2.2329 H   0  0  0  0  0  0  0  0  0  0  0  0
   17.7399   -3.1264   -3.0294 H   0  0  0  0  0  0  0  0  0  0  0  0
   17.2745   -6.1468   -3.3776 H   0  0  0  0  0  0  0  0  0  0  0  0
   21.7293   -6.8135   -5.0300 H   0  0  0  0  0  0  0  0  0  0  0  0
   24.5665   -8.5440   -6.4281 H   0  0  0  0  0  0  0  0  0  0  0  0
   22.8398   -8.7281   -6.0946 H   0  0  0  0  0  0  0  0  0  0  0  0
   23.8345   -7.5258   -5.1848 H   0  0  0  0  0  0  0  0  0  0  0  0
   22.8584   -6.2983  -11.2954 H   0  0  0  0  0  0  0  0  0  0  0  0
   21.7190   -4.9934  -11.0422 H   0  0  0  0  0  0  0  0  0  0  0  0
   21.2699   -6.6955  -10.6271 H   0  0  0  0  0  0  0  0  0  0  0  0
   18.7742   -3.3039  -10.4629 H   0  0  0  0  0  0  0  0  0  0  0  0
   18.9419   -2.8166   -8.7704 H   0  0  0  0  0  0  0  0  0  0  0  0
   18.1013   -4.3545   -9.2158 H   0  0  0  0  0  0  0  0  0  0  0  0
   18.8182   -4.4549   -7.0779 H   0  0  0  0  0  0  0  0  0  0  0  0
   15.6269   -5.4409   -5.0797 H   0  0  0  0  0  0  0  0  0  0  0  0
   15.9074   -3.7560   -4.7076 H   0  0  0  0  0  0  0  0  0  0  0  0
   14.7701   -5.8774   -2.8181 H   0  0  0  0  0  0  0  0  0  0  0  0
   13.9007   -4.5544   -3.5994 H   0  0  0  0  0  0  0  0  0  0  0  0
   14.1103   -4.9312    1.8323 H   0  0  0  0  0  0  0  0  0  0  0  0
   12.6426   -4.0388    1.4701 H   0  0  0  0  0  0  0  0  0  0  0  0
   14.9399   -3.1041    3.2368 H   0  0  0  0  0  0  0  0  0  0  0  0
   13.3210   -3.5366    3.7364 H   0  0  0  0  0  0  0  0  0  0  0  0
   14.3787    3.3656    6.8869 H   0  0  0  0  0  0  0  0  0  0  0  0
   14.9710    6.4922    9.8092 H   0  0  0  0  0  0  0  0  0  0  0  0
   16.0969    5.2927   10.4215 H   0  0  0  0  0  0  0  0  0  0  0  0
   14.3397    5.2499   10.8849 H   0  0  0  0  0  0  0  0  0  0  0  0
   16.1985    3.2074   13.1642 H   0  0  0  0  0  0  0  0  0  0  0  0
   17.0509    2.0476   12.1519 H   0  0  0  0  0  0  0  0  0  0  0  0
   15.3736    1.7083   12.7657 H   0  0  0  0  0  0  0  0  0  0  0  0
  1  2  1  0  0  0  0
  1 47  1  0  0  0  0
  1 48  1  0  0  0  0
  1 49  1  0  0  0  0
  2  3  1  0  0  0  0
  3  4  1  0  0  0  0
  3 44  2  0  0  0  0
  4  5  2  0  0  0  0
  4 50  1  0  0  0  0
  5  6  1  0  0  0  0
  5 40  1  0  0  0  0
  6  7  1  0  0  0  0
  6 51  1  0  0  0  0
  6 52  1  0  0  0  0
  7  8  1  0  0  0  0
  7 53  1  0  0  0  0
  7 54  1  0  0  0  0
  8  9  2  0  0  0  0
  8 10  1  0  0  0  0
 11 12  1  0  0  0  0
 11 39  1  0  0  0  0
 11 10  1  0  0  0  0
 11 55  1  6  0  0  0
 12 13  1  0  0  0  0
 12 56  1  0  0  0  0
 12 57  1  0  0  0  0
 13 14  1  0  0  0  0
 13 58  1  0  0  0  0
 13 59  1  0  0  0  0
 14 38  1  0  0  0  0
 14 15  1  0  0  0  0
 14 60  1  1  0  0  0
 15 16  1  0  0  0  0
 16 61  1  0  0  0  0
 16 62  1  0  0  0  0
 16 63  1  0  0  0  0
 17 18  1  0  0  0  0
 17 37  1  0  0  0  0
 17 15  1  0  0  0  0
 17 64  1  6  0  0  0
 18 19  1  0  0  0  0
 18 65  1  0  0  0  0
 18 66  1  0  0  0  0
 19 20  1  0  0  0  0
 19 67  1  0  0  0  0
 19 68  1  0  0  0  0
 20 36  1  0  0  0  0
 20 21  1  0  0  0  0
 20 69  1  1  0  0  0
 21 22  1  0  0  0  0
 22 23  2  0  0  0  0
 22 24  1  0  0  0  0
 24 25  1  0  0  0  0
 24 35  2  0  0  0  0
 25 26  2  0  0  0  0
 25 70  1  0  0  0  0
 26 27  1  0  0  0  0
 26 29  1  0  0  0  0
 27 28  1  0  0  0  0
 28 71  1  0  0  0  0
 28 72  1  0  0  0  0
 28 73  1  0  0  0  0
 29 30  1  0  0  0  0
 29 32  2  0  0  0  0
 30 31  1  0  0  0  0
 31 74  1  0  0  0  0
 31 75  1  0  0  0  0
 31 76  1  0  0  0  0
 32 33  1  0  0  0  0
 32 35  1  0  0  0  0
 33 34  1  0  0  0  0
 34 77  1  0  0  0  0
 34 78  1  0  0  0  0
 34 79  1  0  0  0  0
 35 80  1  0  0  0  0
 36 37  1  0  0  0  0
 36 81  1  0  0  0  0
 36 82  1  0  0  0  0
 37 83  1  0  0  0  0
 37 84  1  0  0  0  0
 38 39  1  0  0  0  0
 38 85  1  0  0  0  0
 38 86  1  0  0  0  0
 39 87  1  0  0  0  0
 39 88  1  0  0  0  0
 40 41  2  0  0  0  0
 40 89  1  0  0  0  0
 41 42  1  0  0  0  0
 41 44  1  0  0  0  0
 42 43  1  0  0  0  0
 43 90  1  0  0  0  0
 43 91  1  0  0  0  0
 43 92  1  0  0  0  0
 44 45  1  0  0  0  0
 45 46  1  0  0  0  0
 46 93  1  0  0  0  0
 46 94  1  0  0  0  0
 46 95  1  0  0  0  0
M  END
>  <Energy>
137.779

$$$$