4474
  -OEChem-03242010103D

 64 66  0     1  0  0  0  0  0999 V2000
    1.0592    0.7450    1.9466 O   0  0  0  0  0  0  0  0  0  0  0  0
   -5.0901    0.5242    0.5870 O   0  0  0  0  0  0  0  0  0  0  0  0
   -0.7228    1.0110    3.4001 O   0  0  0  0  0  0  0  0  0  0  0  0
   -4.7308   -0.1161   -1.6085 O   0  0  0  0  0  0  0  0  0  0  0  0
    0.5552   -3.9528   -2.3057 O   0  5  0  0  0  0  0  0  0  0  0  0
    0.5748   -1.8129   -2.7954 O   0  0  0  0  0  0  0  0  0  0  0  0
   -1.4356    2.6807   -0.8263 N   0  0  0  0  0  0  0  0  0  0  0  0
    3.2915   -0.9805    1.5624 N   0  0  1  0  0  0  0  0  0  0  0  0
    0.2159   -2.7688   -2.0659 N   0  3  0  0  0  0  0  0  0  0  0  0
   -2.2096    0.4750    0.7747 C   0  0  1  0  0  0  0  0  0  0  0  0
   -0.9749    1.3356    1.0660 C   0  0  0  0  0  0  0  0  0  0  0  0
   -3.0666    1.0285   -0.3683 C   0  0  0  0  0  0  0  0  0  0  0  0
   -1.7902   -0.9334    0.4645 C   0  0  0  0  0  0  0  0  0  0  0  0
   -0.6376    2.3712    0.2639 C   0  0  0  0  0  0  0  0  0  0  0  0
   -2.6417    2.0668   -1.1229 C   0  0  0  0  0  0  0  0  0  0  0  0
   -0.2230    1.0160    2.2903 C   0  0  0  0  0  0  0  0  0  0  0  0
   -0.9895   -1.1944   -0.6474 C   0  0  0  0  0  0  0  0  0  0  0  0
   -2.2014   -1.9806    1.2890 C   0  0  0  0  0  0  0  0  0  0  0  0
    0.5702    3.2519    0.4379 C   0  0  0  0  0  0  0  0  0  0  0  0
   -4.3856    0.4052   -0.5641 C   0  0  0  0  0  0  0  0  0  0  0  0
   -3.3793    2.6517   -2.2971 C   0  0  0  0  0  0  0  0  0  0  0  0
    3.3154    0.1377    2.4936 C   0  0  0  0  0  0  0  0  0  0  0  0
    1.9229    0.4125    3.0384 C   0  0  0  0  0  0  0  0  0  0  0  0
   -0.5997   -2.5025   -0.9345 C   0  0  0  0  0  0  0  0  0  0  0  0
   -1.8118   -3.2888    1.0019 C   0  0  0  0  0  0  0  0  0  0  0  0
    4.4626   -0.9480    0.6831 C   0  0  0  0  0  0  0  0  0  0  0  0
   -1.0109   -3.5497   -0.1099 C   0  0  0  0  0  0  0  0  0  0  0  0
    4.3178    0.0812   -0.4062 C   0  0  0  0  0  0  0  0  0  0  0  0
    3.2364   -2.2544    2.2837 C   0  0  0  0  0  0  0  0  0  0  0  0
    5.4490    0.7101   -0.9264 C   0  0  0  0  0  0  0  0  0  0  0  0
    3.0524    0.4062   -0.8951 C   0  0  0  0  0  0  0  0  0  0  0  0
   -6.4054   -0.0394    0.5546 C   0  0  0  0  0  0  0  0  0  0  0  0
    5.3150    1.6636   -1.9355 C   0  0  0  0  0  0  0  0  0  0  0  0
    2.9185    1.3597   -1.9043 C   0  0  0  0  0  0  0  0  0  0  0  0
    4.0497    1.9885   -2.4245 C   0  0  0  0  0  0  0  0  0  0  0  0
   -2.8220    0.4952    1.6871 H   0  0  0  0  0  0  0  0  0  0  0  0
   -1.1453    3.4533   -1.4152 H   0  0  0  0  0  0  0  0  0  0  0  0
   -0.6729   -0.3716   -1.2836 H   0  0  0  0  0  0  0  0  0  0  0  0
   -2.8254   -1.7932    2.1587 H   0  0  0  0  0  0  0  0  0  0  0  0
    1.2929    3.0752   -0.3609 H   0  0  0  0  0  0  0  0  0  0  0  0
    1.0771    3.1266    1.3972 H   0  0  0  0  0  0  0  0  0  0  0  0
    0.2698    4.3052    0.3886 H   0  0  0  0  0  0  0  0  0  0  0  0
   -2.8349    2.4429   -3.2241 H   0  0  0  0  0  0  0  0  0  0  0  0
   -4.3958    2.2672   -2.4088 H   0  0  0  0  0  0  0  0  0  0  0  0
   -3.4636    3.7386   -2.1866 H   0  0  0  0  0  0  0  0  0  0  0  0
    4.0211   -0.0310    3.3169 H   0  0  0  0  0  0  0  0  0  0  0  0
    3.6395    1.0565    1.9885 H   0  0  0  0  0  0  0  0  0  0  0  0
    1.5169   -0.4414    3.5911 H   0  0  0  0  0  0  0  0  0  0  0  0
    1.9716    1.2697    3.7210 H   0  0  0  0  0  0  0  0  0  0  0  0
   -2.1321   -4.1038    1.6444 H   0  0  0  0  0  0  0  0  0  0  0  0
    5.3815   -0.7838    1.2616 H   0  0  0  0  0  0  0  0  0  0  0  0
    4.5773   -1.9116    0.1683 H   0  0  0  0  0  0  0  0  0  0  0  0
   -0.7264   -4.5809   -0.3024 H   0  0  0  0  0  0  0  0  0  0  0  0
    2.3324   -2.3368    2.8944 H   0  0  0  0  0  0  0  0  0  0  0  0
    4.1083   -2.4012    2.9317 H   0  0  0  0  0  0  0  0  0  0  0  0
    3.1935   -3.0910    1.5765 H   0  0  0  0  0  0  0  0  0  0  0  0
    6.4402    0.4645   -0.5548 H   0  0  0  0  0  0  0  0  0  0  0  0
    2.1525   -0.0818   -0.5330 H   0  0  0  0  0  0  0  0  0  0  0  0
   -6.8688    0.1228    1.5314 H   0  0  0  0  0  0  0  0  0  0  0  0
   -6.3510   -1.1159    0.3660 H   0  0  0  0  0  0  0  0  0  0  0  0
   -7.0118    0.4570   -0.2090 H   0  0  0  0  0  0  0  0  0  0  0  0
    6.1958    2.1524   -2.3413 H   0  0  0  0  0  0  0  0  0  0  0  0
    1.9344    1.6036   -2.2940 H   0  0  0  0  0  0  0  0  0  0  0  0
    3.9454    2.7289   -3.2122 H   0  0  0  0  0  0  0  0  0  0  0  0
  1 16  1  0  0  0  0
  1 23  1  0  0  0  0
  2 20  1  0  0  0  0
  2 32  1  0  0  0  0
  3 16  2  0  0  0  0
  4 20  2  0  0  0  0
  5  9  1  0  0  0  0
  6  9  2  0  0  0  0
  7 14  1  0  0  0  0
  7 15  1  0  0  0  0
  7 37  1  0  0  0  0
  8 22  1  0  0  0  0
  8 26  1  0  0  0  0
  8 29  1  0  0  0  0
  9 24  1  0  0  0  0
 10 11  1  0  0  0  0
 10 12  1  0  0  0  0
 10 13  1  0  0  0  0
 10 36  1  0  0  0  0
 11 14  2  0  0  0  0
 11 16  1  0  0  0  0
 12 15  2  0  0  0  0
 12 20  1  0  0  0  0
 13 17  2  0  0  0  0
 13 18  1  0  0  0  0
 14 19  1  0  0  0  0
 15 21  1  0  0  0  0
 17 24  1  0  0  0  0
 17 38  1  0  0  0  0
 18 25  2  0  0  0  0
 18 39  1  0  0  0  0
 19 40  1  0  0  0  0
 19 41  1  0  0  0  0
 19 42  1  0  0  0  0
 21 43  1  0  0  0  0
 21 44  1  0  0  0  0
 21 45  1  0  0  0  0
 22 23  1  0  0  0  0
 22 46  1  0  0  0  0
 22 47  1  0  0  0  0
 23 48  1  0  0  0  0
 23 49  1  0  0  0  0
 24 27  2  0  0  0  0
 25 27  1  0  0  0  0
 25 50  1  0  0  0  0
 26 28  1  0  0  0  0
 26 51  1  0  0  0  0
 26 52  1  0  0  0  0
 27 53  1  0  0  0  0
 28 30  2  0  0  0  0
 28 31  1  0  0  0  0
 29 54  1  0  0  0  0
 29 55  1  0  0  0  0
 29 56  1  0  0  0  0
 30 33  1  0  0  0  0
 30 57  1  0  0  0  0
 31 34  2  0  0  0  0
 31 58  1  0  0  0  0
 32 59  1  0  0  0  0
 32 60  1  0  0  0  0
 32 61  1  0  0  0  0
 33 35  2  0  0  0  0
 33 62  1  0  0  0  0
 34 35  1  0  0  0  0
 34 63  1  0  0  0  0
 35 64  1  0  0  0  0
M  CHG  2   5  -1   9   1
M  END
> <PUBCHEM_COMPOUND_CID>
4474

> <PUBCHEM_CONFORMER_RMSD>
1.2

> <PUBCHEM_CONFORMER_DIVERSEORDER>
1
55
134
81
94
241
117
235
6
192
111
200
103
74
66
212
174
155
136
173
206
225
37
207
90
244
195
102
216
5
14
162
219
65
79
120
224
175
234
140
208
100
63
144
199
105
38
179
217
172
27
48
237
89
205
146
221
96
129
170
218
128
116
148
229
113
125
85
64
69
25
183
165
97
167
223
243
86
62
220
7
53
197
71
189
213
104
163
72
135
203
43
171
185
83
158
75
232
147
145
169
131
242
88
121
143
34
99
168
57
10
184
210
227
54
4
95
127
123
70
201
80
17
228
150
186
230
176
84
31
24
238
132
151
209
108
157
233
198
91
240
106
101
178
46
180
52
133
190
56
137
141
42
124
211
119
93
118
202
82
115
41
20
149
222
87
45
191
67
187
107
76
126
22
181
182
152
164
122
193
194
49
13
236
214
112
226
9
40
73
231
142
110
23
58
166
29
98
159
114
161
12
28
30
11
51
239
47
196
130
39
188
19
153
8
160
60
109
139
2
204
61
177
138
154
215
36
32
15
18
35
92
50
33
59
44
78
68
26
16
3
77
156
21

> <PUBCHEM_MMFF94_PARTIAL_CHARGES>
45
1 -0.43
10 0.42
11 -0.12
12 -0.12
13 -0.14
14 -0.04
15 -0.04
16 0.71
17 -0.15
18 -0.15
19 0.14
2 -0.43
20 0.71
21 0.14
22 0.27
23 0.28
24 0.13
25 -0.15
26 0.41
27 -0.15
28 -0.14
29 0.27
3 -0.57
30 -0.15
31 -0.15
32 0.28
33 -0.15
34 -0.15
35 -0.15
37 0.4
38 0.15
39 0.15
4 -0.57
5 -0.52
50 0.15
53 0.15
57 0.15
58 0.15
6 -0.52
62 0.15
63 0.15
64 0.15
7 -0.6
8 -0.81
9 0.91

> <PUBCHEM_EFFECTIVE_ROTOR_COUNT>
11.4

> <PUBCHEM_PHARMACOPHORE_FEATURES>
11
1 3 acceptor
1 4 acceptor
1 5 acceptor
1 5 anion
1 6 acceptor
1 7 cation
1 7 donor
1 8 cation
6 13 17 18 24 25 27 rings
6 28 30 31 33 34 35 rings
6 7 10 11 12 14 15 rings

> <PUBCHEM_HEAVY_ATOM_COUNT>
35

> <PUBCHEM_ATOM_DEF_STEREO_COUNT>
0

> <PUBCHEM_ATOM_UDEF_STEREO_COUNT>
1

> <PUBCHEM_BOND_DEF_STEREO_COUNT>
0

> <PUBCHEM_BOND_UDEF_STEREO_COUNT>
0

> <PUBCHEM_ISOTOPIC_ATOM_COUNT>
0

> <PUBCHEM_COMPONENT_COUNT>
1

> <PUBCHEM_CACTVS_TAUTO_COUNT>
3

> <PUBCHEM_CONFORMER_ID>
0000117A00000001

> <PUBCHEM_MMFF94_ENERGY>
98.8168

> <PUBCHEM_FEATURE_SELFOVERLAP>
55.903

> <PUBCHEM_SHAPE_FINGERPRINT>
11578080 2 17842558723611862864
12107698 1 17749672879192839752
12467345 10 17530966894844089835
12788726 201 18342183219448609224
133893 2 17766011501469591354
13726171 33 18053128347331341728
144659 39 17969242134228956051
19319366 153 17967809474999687954
20511986 3 18041552663471256100
20764821 26 17560790078849491478
25265897 201 17898035459112166310
3493558 16 15575296396405836345
35225 105 18129928032235564350
404807 14 13467642419657078741
5283178 26 17058393572180779758
6669772 16 18044370762695999437

> <PUBCHEM_SHAPE_MULTIPOLES>
670.12
10.12
4.01
3.1
0.63
1.37
-0.63
-3.8
2.23
-0.62
1.91
1.9
0.86
-1.37

> <PUBCHEM_SHAPE_SELFOVERLAP>
1426.073

> <PUBCHEM_SHAPE_VOLUME>
374

> <PUBCHEM_COORDINATE_TYPE>
2
5
10

$$$$