90655525
  -OEChem-03242010103D

 68 70  0     0  0  0  0  0  0999 V2000
    9.7786   -0.9423    1.0652 O   0  0  0  0  0  0  0  0  0  0  0  0
   -9.7075   -0.9706    1.2682 O   0  0  0  0  0  0  0  0  0  0  0  0
    7.7933   -2.6431    0.1500 O   0  0  0  0  0  0  0  0  0  0  0  0
   -9.3023    1.7694    1.2869 O   0  0  0  0  0  0  0  0  0  0  0  0
    9.3591    1.7955    1.0367 O   0  0  0  0  0  0  0  0  0  0  0  0
   -7.7210   -2.6438    0.3058 O   0  0  0  0  0  0  0  0  0  0  0  0
    4.8851    2.2749   -1.3484 O   0  0  0  0  0  0  0  0  0  0  0  0
   -4.8596    2.2951   -1.1719 O   0  0  0  0  0  0  0  0  0  0  0  0
    6.1904    0.6048   -0.3426 C   0  0  0  0  0  0  0  0  0  0  0  0
   -6.1388    0.6211   -0.1395 C   0  0  0  0  0  0  0  0  0  0  0  0
    1.2230    0.0728   -0.9710 C   0  0  0  0  0  0  0  0  0  0  0  0
   -1.1924    0.0844   -0.9121 C   0  0  0  0  0  0  0  0  0  0  0  0
    8.6006   -0.4345    0.6032 C   0  0  0  0  0  0  0  0  0  0  0  0
   -8.5359   -0.4481    0.8061 C   0  0  0  0  0  0  0  0  0  0  0  0
    7.6031   -1.2941    0.1431 C   0  0  0  0  0  0  0  0  0  0  0  0
   -8.3355    0.9323    0.8172 C   0  0  0  0  0  0  0  0  0  0  0  0
    8.3930    0.9449    0.5904 C   0  0  0  0  0  0  0  0  0  0  0  0
   -7.5378   -1.2939    0.3223 C   0  0  0  0  0  0  0  0  0  0  0  0
    6.3980   -0.7746   -0.3298 C   0  0  0  0  0  0  0  0  0  0  0  0
   -7.1370    1.4669    0.3443 C   0  0  0  0  0  0  0  0  0  0  0  0
    7.1878    1.4644    0.1177 C   0  0  0  0  0  0  0  0  0  0  0  0
   -6.3391   -0.7593   -0.1504 C   0  0  0  0  0  0  0  0  0  0  0  0
    0.0165    0.7704   -1.0301 C   0  0  0  0  0  0  0  0  0  0  0  0
    4.9094    1.1571   -0.8455 C   0  0  0  0  0  0  0  0  0  0  0  0
   -4.8649    1.1894   -0.6424 C   0  0  0  0  0  0  0  0  0  0  0  0
    2.4842    0.7871   -1.0936 C   0  0  0  0  0  0  0  0  0  0  0  0
   -2.4507    0.8113   -0.9735 C   0  0  0  0  0  0  0  0  0  0  0  0
    1.2206   -1.3109   -0.7939 C   0  0  0  0  0  0  0  0  0  0  0  0
   -1.1947   -1.2993   -0.7351 C   0  0  0  0  0  0  0  0  0  0  0  0
    3.6859    0.3231   -0.6830 C   0  0  0  0  0  0  0  0  0  0  0  0
   -3.6357    0.3592   -0.5050 C   0  0  0  0  0  0  0  0  0  0  0  0
    0.0117   -1.9969   -0.6762 C   0  0  0  0  0  0  0  0  0  0  0  0
    9.8506   -1.2456    2.4565 C   0  0  0  0  0  0  0  0  0  0  0  0
  -10.7597   -1.1368    0.3204 C   0  0  0  0  0  0  0  0  0  0  0  0
    6.7234   -3.4507   -0.3374 C   0  0  0  0  0  0  0  0  0  0  0  0
   -9.0169    3.1666    1.2630 C   0  0  0  0  0  0  0  0  0  0  0  0
    9.0661    3.1905    0.9894 C   0  0  0  0  0  0  0  0  0  0  0  0
   -6.6508   -3.4365   -0.2050 C   0  0  0  0  0  0  0  0  0  0  0  0
    5.6267   -1.4132   -0.7402 H   0  0  0  0  0  0  0  0  0  0  0  0
   -6.9271    2.5310    0.3360 H   0  0  0  0  0  0  0  0  0  0  0  0
    6.9729    2.5273    0.0922 H   0  0  0  0  0  0  0  0  0  0  0  0
   -5.5662   -1.3857   -0.5767 H   0  0  0  0  0  0  0  0  0  0  0  0
    0.0184    1.8507   -1.1653 H   0  0  0  0  0  0  0  0  0  0  0  0
    2.4210    1.7659   -1.5641 H   0  0  0  0  0  0  0  0  0  0  0  0
   -2.4033    1.7832   -1.4599 H   0  0  0  0  0  0  0  0  0  0  0  0
    2.1331   -1.8993   -0.7647 H   0  0  0  0  0  0  0  0  0  0  0  0
   -2.1107   -1.8783   -0.6611 H   0  0  0  0  0  0  0  0  0  0  0  0
    3.7682   -0.6207   -0.1602 H   0  0  0  0  0  0  0  0  0  0  0  0
   -3.7030   -0.5786    0.0310 H   0  0  0  0  0  0  0  0  0  0  0  0
    0.0096   -3.0755   -0.5485 H   0  0  0  0  0  0  0  0  0  0  0  0
   10.8479   -1.6400    2.6698 H   0  0  0  0  0  0  0  0  0  0  0  0
    9.1097   -2.0054    2.7242 H   0  0  0  0  0  0  0  0  0  0  0  0
    9.6962   -0.3431    3.0562 H   0  0  0  0  0  0  0  0  0  0  0  0
  -11.6236   -1.5617    0.8388 H   0  0  0  0  0  0  0  0  0  0  0  0
  -10.4566   -1.8246   -0.4753 H   0  0  0  0  0  0  0  0  0  0  0  0
  -11.0489   -0.1718   -0.1077 H   0  0  0  0  0  0  0  0  0  0  0  0
    6.5341   -3.2715   -1.4013 H   0  0  0  0  0  0  0  0  0  0  0  0
    7.0420   -4.4944   -0.2455 H   0  0  0  0  0  0  0  0  0  0  0  0
    5.8212   -3.3415    0.2743 H   0  0  0  0  0  0  0  0  0  0  0  0
   -8.1723    3.4178    1.9136 H   0  0  0  0  0  0  0  0  0  0  0  0
   -8.8814    3.5341    0.2400 H   0  0  0  0  0  0  0  0  0  0  0  0
   -9.8939    3.6807    1.6702 H   0  0  0  0  0  0  0  0  0  0  0  0
    8.2256    3.4493    1.6424 H   0  0  0  0  0  0  0  0  0  0  0  0
    8.9202    3.5385   -0.0389 H   0  0  0  0  0  0  0  0  0  0  0  0
    9.9436    3.7166    1.3799 H   0  0  0  0  0  0  0  0  0  0  0  0
   -6.4707   -3.2361   -1.2667 H   0  0  0  0  0  0  0  0  0  0  0  0
   -5.7444   -3.3343    0.4017 H   0  0  0  0  0  0  0  0  0  0  0  0
   -6.9635   -4.4834   -0.1305 H   0  0  0  0  0  0  0  0  0  0  0  0
  1 13  1  0  0  0  0
  1 33  1  0  0  0  0
  2 14  1  0  0  0  0
  2 34  1  0  0  0  0
  3 15  1  0  0  0  0
  3 35  1  0  0  0  0
  4 16  1  0  0  0  0
  4 36  1  0  0  0  0
  5 17  1  0  0  0  0
  5 37  1  0  0  0  0
  6 18  1  0  0  0  0
  6 38  1  0  0  0  0
  7 24  2  0  0  0  0
  8 25  2  0  0  0  0
  9 19  2  0  0  0  0
  9 21  1  0  0  0  0
  9 24  1  0  0  0  0
 10 20  2  0  0  0  0
 10 22  1  0  0  0  0
 10 25  1  0  0  0  0
 11 23  2  0  0  0  0
 11 26  1  0  0  0  0
 11 28  1  0  0  0  0
 12 23  1  0  0  0  0
 12 27  1  0  0  0  0
 12 29  2  0  0  0  0
 13 15  2  0  0  0  0
 13 17  1  0  0  0  0
 14 16  2  0  0  0  0
 14 18  1  0  0  0  0
 15 19  1  0  0  0  0
 16 20  1  0  0  0  0
 17 21  2  0  0  0  0
 18 22  2  0  0  0  0
 19 39  1  0  0  0  0
 20 40  1  0  0  0  0
 21 41  1  0  0  0  0
 22 42  1  0  0  0  0
 23 43  1  0  0  0  0
 24 30  1  0  0  0  0
 25 31  1  0  0  0  0
 26 30  2  0  0  0  0
 26 44  1  0  0  0  0
 27 31  2  0  0  0  0
 27 45  1  0  0  0  0
 28 32  2  0  0  0  0
 28 46  1  0  0  0  0
 29 32  1  0  0  0  0
 29 47  1  0  0  0  0
 30 48  1  0  0  0  0
 31 49  1  0  0  0  0
 32 50  1  0  0  0  0
 33 51  1  0  0  0  0
 33 52  1  0  0  0  0
 33 53  1  0  0  0  0
 34 54  1  0  0  0  0
 34 55  1  0  0  0  0
 34 56  1  0  0  0  0
 35 57  1  0  0  0  0
 35 58  1  0  0  0  0
 35 59  1  0  0  0  0
 36 60  1  0  0  0  0
 36 61  1  0  0  0  0
 36 62  1  0  0  0  0
 37 63  1  0  0  0  0
 37 64  1  0  0  0  0
 37 65  1  0  0  0  0
 38 66  1  0  0  0  0
 38 67  1  0  0  0  0
 38 68  1  0  0  0  0
M  END
> <PUBCHEM_COMPOUND_CID>
90655525

> <PUBCHEM_CONFORMER_RMSD>
1.2

> <PUBCHEM_CONFORMER_DIVERSEORDER>
43
137
63
68
169
56
143
139
168
23
49
19
147
93
1
152
112
135
25
173
131
171
67
95
170
121
11
148
133
78
64
4
140
47
41
104
138
164
132
115
77
159
165
58
123
154
125
20
142
174
119
128
163
160
117
122
3
60
105
167
80
149
166
50
91
82
97
172
129
71
153
146
5
156
18
96
87
126
74
107
141
2
118
134
33
127
116
48
151
109
86
32
111
120
157
45
9
59
162
130
150
13
114
34
55
81
145
66
62
12
29
101
92
73
39
72
106
8
40
108
70
38
46
35
14
161
69
10
42
102
6
51
155
28
61
158
88
15
124
144
7
52
76
30
37
110
75
136
16
83
57
26
65
31
54
99
53
24
84
100
90
89
36
79
85
22
98
113
21
94
17
103
27
44

> <PUBCHEM_MMFF94_PARTIAL_CHARGES>
50
1 -0.36
10 0.09
11 0.03
12 0.03
13 0.08
14 0.08
15 0.08
16 0.08
17 0.08
18 0.08
19 -0.15
2 -0.36
20 -0.15
21 -0.15
22 -0.15
23 -0.15
24 0.47
25 0.47
26 -0.18
27 -0.18
28 -0.15
29 -0.15
3 -0.36
30 -0.14
31 -0.14
32 -0.15
33 0.28
34 0.28
35 0.28
36 0.28
37 0.28
38 0.28
39 0.15
4 -0.36
40 0.15
41 0.15
42 0.15
43 0.15
44 0.15
45 0.15
46 0.15
47 0.15
48 0.15
49 0.15
5 -0.36
50 0.15
6 -0.36
7 -0.57
8 -0.57
9 0.09

> <PUBCHEM_EFFECTIVE_ROTOR_COUNT>
12

> <PUBCHEM_PHARMACOPHORE_FEATURES>
11
1 1 acceptor
1 2 acceptor
1 3 acceptor
1 4 acceptor
1 5 acceptor
1 6 acceptor
1 7 acceptor
1 8 acceptor
6 10 14 16 18 20 22 rings
6 11 12 23 28 29 32 rings
6 9 13 15 17 19 21 rings

> <PUBCHEM_HEAVY_ATOM_COUNT>
38

> <PUBCHEM_ATOM_DEF_STEREO_COUNT>
0

> <PUBCHEM_ATOM_UDEF_STEREO_COUNT>
0

> <PUBCHEM_BOND_DEF_STEREO_COUNT>
2

> <PUBCHEM_BOND_UDEF_STEREO_COUNT>
0

> <PUBCHEM_ISOTOPIC_ATOM_COUNT>
0

> <PUBCHEM_COMPONENT_COUNT>
1

> <PUBCHEM_CACTVS_TAUTO_COUNT>
1

> <PUBCHEM_CONFORMER_ID>
05674B250000002B

> <PUBCHEM_MMFF94_ENERGY>
179.8793

> <PUBCHEM_FEATURE_SELFOVERLAP>
55.848

> <PUBCHEM_SHAPE_FINGERPRINT>
10029044 110 14045733846968587914
10533779 47 18187374181359410922
10580692 12 18335140907865691246
10677351 14 8862937290658861308
11135926 11 18333445435777904071
11211813 74 10735872859755371190
11456790 92 18201999932657009968
11534866 41 17385722462148232650
11607047 141 16486976147688239678
11966995 178 18272095964297972990
12089408 11 18260268568239423884
12664476 115 17561083610337537425
12728209 37 18131918156813673618
12758862 11 10879984766412695703
13740195 50 18411418432247503185
13947947 74 11312053240450531077
14937079 2 18270962448512761564
15247644 1 15285355116180044912
1754908 1 18411980273687879696
1818759 1 14996288006772833857
19302320 297 18130789001369924380
19315958 150 18272931623178611814
20105231 36 17676487208280184506
21362267 313 17916310446077082376
21895431 317 17531239522684648090
21927370 108 16081090364435887301
23576562 1 11239410715323066273
24204213 200 16845297094747753878
3711267 37 15267347339750224498
4017518 198 13479135696539014033
44389302 135 18261668187150986898
4616759 239 18202009824625465259
4625314 4 18187366545640931149
4874694 18 18411140209220503335
9937071 3 17967534583727813323
9953998 17 18410296905013084837

> <PUBCHEM_SHAPE_MULTIPOLES>
735.07
45.38
3.23
1.33
4.37
0.7
0.38
-1.58
24.96
-0.12
0.45
-1.26
-0.25
-0.91

> <PUBCHEM_SHAPE_SELFOVERLAP>
1571.929

> <PUBCHEM_SHAPE_VOLUME>
411

> <PUBCHEM_COORDINATE_TYPE>
2
5
10

$$$$