57385272
  -OEChem-03242010103D

 66 69  0     1  0  0  0  0  0999 V2000
   -2.9887    2.0746    3.1613 O   0  0  0  0  0  0  0  0  0  0  0  0
   -4.3281    1.1731    0.8699 O   0  0  0  0  0  0  0  0  0  0  0  0
    4.3633    2.3530   -1.2178 O   0  0  0  0  0  0  0  0  0  0  0  0
   -5.4932   -1.9969    1.2169 O   0  0  0  0  0  0  0  0  0  0  0  0
   -0.1243    2.0338    0.8069 N   0  0  0  0  0  0  0  0  0  0  0  0
    2.3159    1.4853   -0.5906 N   0  0  0  0  0  0  0  0  0  0  0  0
    4.1897    0.0722   -0.8355 N   0  0  0  0  0  0  0  0  0  0  0  0
    0.8138    3.1187    0.4804 C   0  0  0  0  0  0  0  0  0  0  0  0
    0.5963    0.7695    1.0237 C   0  0  0  0  0  0  0  0  0  0  0  0
    1.6423    2.7736   -0.7585 C   0  0  0  0  0  0  0  0  0  0  0  0
    1.4082    0.3928   -0.2161 C   0  0  0  0  0  0  0  0  0  0  0  0
   -0.9210    2.3798    1.9833 C   0  0  0  0  0  0  0  0  0  0  0  0
   -2.2652    1.6484    2.0031 C   0  0  2  0  0  0  0  0  0  0  0  0
    3.6836    1.3687   -0.9149 C   0  0  0  0  0  0  0  0  0  0  0  0
   -3.1207    1.9215    0.7679 C   0  0  0  0  0  0  0  0  0  0  0  0
    5.5162   -0.3129   -0.5183 C   0  0  0  0  0  0  0  0  0  0  0  0
   -4.9115    0.7837   -0.3063 C   0  0  0  0  0  0  0  0  0  0  0  0
   -5.1112   -0.5664   -0.5936 C   0  0  0  0  0  0  0  0  0  0  0  0
    6.4777    0.6594   -0.2428 C   0  0  0  0  0  0  0  0  0  0  0  0
    5.8603   -1.6642   -0.4814 C   0  0  0  0  0  0  0  0  0  0  0  0
   -5.3102    1.7579   -1.2213 C   0  0  0  0  0  0  0  0  0  0  0  0
    7.7832    0.2806    0.0695 C   0  0  0  0  0  0  0  0  0  0  0  0
    7.1659   -2.0430   -0.1690 C   0  0  0  0  0  0  0  0  0  0  0  0
    8.1274   -1.0707    0.1064 C   0  0  0  0  0  0  0  0  0  0  0  0
   -5.7095   -0.9424   -1.7962 C   0  0  0  0  0  0  0  0  0  0  0  0
   -4.7039   -1.5995    0.3485 C   0  0  0  0  0  0  0  0  0  0  0  0
   -5.9087    1.3820   -2.4240 C   0  0  0  0  0  0  0  0  0  0  0  0
   -6.1083    0.0318   -2.7113 C   0  0  0  0  0  0  0  0  0  0  0  0
   -3.3456   -2.2187    0.3172 C   0  0  0  0  0  0  0  0  0  0  0  0
    9.5232   -1.4757    0.4403 C   0  0  0  0  0  0  0  0  0  0  0  0
   -3.0067   -3.2052    1.2434 C   0  0  0  0  0  0  0  0  0  0  0  0
   -2.4160   -1.8117   -0.6396 C   0  0  0  0  0  0  0  0  0  0  0  0
   -1.7382   -3.7846    1.2128 C   0  0  0  0  0  0  0  0  0  0  0  0
   -1.1475   -2.3910   -0.6704 C   0  0  0  0  0  0  0  0  0  0  0  0
   -0.8085   -3.3775    0.2560 C   0  0  0  0  0  0  0  0  0  0  0  0
    1.4848    3.3128    1.3278 H   0  0  0  0  0  0  0  0  0  0  0  0
    0.2625    4.0440    0.2746 H   0  0  0  0  0  0  0  0  0  0  0  0
   -0.1067   -0.0442    1.2304 H   0  0  0  0  0  0  0  0  0  0  0  0
    1.2695    0.8515    1.8876 H   0  0  0  0  0  0  0  0  0  0  0  0
    2.3638    3.5732   -0.9531 H   0  0  0  0  0  0  0  0  0  0  0  0
    0.9989    2.6922   -1.6433 H   0  0  0  0  0  0  0  0  0  0  0  0
    0.7519    0.2068   -1.0744 H   0  0  0  0  0  0  0  0  0  0  0  0
    1.9455   -0.5323   -0.0018 H   0  0  0  0  0  0  0  0  0  0  0  0
   -0.3741    2.2081    2.9203 H   0  0  0  0  0  0  0  0  0  0  0  0
   -1.1474    3.4558    1.9859 H   0  0  0  0  0  0  0  0  0  0  0  0
   -2.1162    0.5689    2.1182 H   0  0  0  0  0  0  0  0  0  0  0  0
   -2.5766    1.6455   -0.1434 H   0  0  0  0  0  0  0  0  0  0  0  0
   -3.3844    2.9845    0.7201 H   0  0  0  0  0  0  0  0  0  0  0  0
   -3.8420    1.6080    3.1590 H   0  0  0  0  0  0  0  0  0  0  0  0
    3.5526   -0.7002   -0.9994 H   0  0  0  0  0  0  0  0  0  0  0  0
    6.2695    1.7216   -0.2272 H   0  0  0  0  0  0  0  0  0  0  0  0
    5.1207   -2.4319   -0.6942 H   0  0  0  0  0  0  0  0  0  0  0  0
   -5.1698    2.8140   -1.0080 H   0  0  0  0  0  0  0  0  0  0  0  0
    8.5231    1.0466    0.2866 H   0  0  0  0  0  0  0  0  0  0  0  0
    7.4223   -3.0989   -0.1451 H   0  0  0  0  0  0  0  0  0  0  0  0
   -5.8711   -1.9914   -2.0315 H   0  0  0  0  0  0  0  0  0  0  0  0
   -6.2211    2.1406   -3.1357 H   0  0  0  0  0  0  0  0  0  0  0  0
   -6.5747   -0.2609   -3.6475 H   0  0  0  0  0  0  0  0  0  0  0  0
    9.5430   -2.4492    0.9420 H   0  0  0  0  0  0  0  0  0  0  0  0
    9.9917   -0.7559    1.1200 H   0  0  0  0  0  0  0  0  0  0  0  0
   10.1243   -1.5392   -0.4722 H   0  0  0  0  0  0  0  0  0  0  0  0
   -3.7118   -3.5405    1.9991 H   0  0  0  0  0  0  0  0  0  0  0  0
   -2.6404   -1.0467   -1.3766 H   0  0  0  0  0  0  0  0  0  0  0  0
   -1.4740   -4.5525    1.9340 H   0  0  0  0  0  0  0  0  0  0  0  0
   -0.4240   -2.0766   -1.4167 H   0  0  0  0  0  0  0  0  0  0  0  0
    0.1793   -3.8281    0.2320 H   0  0  0  0  0  0  0  0  0  0  0  0
  1 13  1  0  0  0  0
  1 49  1  0  0  0  0
  2 15  1  0  0  0  0
  2 17  1  0  0  0  0
  3 14  2  0  0  0  0
  4 26  2  0  0  0  0
  5  8  1  0  0  0  0
  5  9  1  0  0  0  0
  5 12  1  0  0  0  0
  6 10  1  0  0  0  0
  6 11  1  0  0  0  0
  6 14  1  0  0  0  0
  7 14  1  0  0  0  0
  7 16  1  0  0  0  0
  7 50  1  0  0  0  0
  8 10  1  0  0  0  0
  8 36  1  0  0  0  0
  8 37  1  0  0  0  0
  9 11  1  0  0  0  0
  9 38  1  0  0  0  0
  9 39  1  0  0  0  0
 10 40  1  0  0  0  0
 10 41  1  0  0  0  0
 11 42  1  0  0  0  0
 11 43  1  0  0  0  0
 12 13  1  0  0  0  0
 12 44  1  0  0  0  0
 12 45  1  0  0  0  0
 13 15  1  0  0  0  0
 13 46  1  0  0  0  0
 15 47  1  0  0  0  0
 15 48  1  0  0  0  0
 16 19  2  0  0  0  0
 16 20  1  0  0  0  0
 17 18  1  0  0  0  0
 17 21  2  0  0  0  0
 18 25  2  0  0  0  0
 18 26  1  0  0  0  0
 19 22  1  0  0  0  0
 19 51  1  0  0  0  0
 20 23  2  0  0  0  0
 20 52  1  0  0  0  0
 21 27  1  0  0  0  0
 21 53  1  0  0  0  0
 22 24  2  0  0  0  0
 22 54  1  0  0  0  0
 23 24  1  0  0  0  0
 23 55  1  0  0  0  0
 24 30  1  0  0  0  0
 25 28  1  0  0  0  0
 25 56  1  0  0  0  0
 26 29  1  0  0  0  0
 27 28  2  0  0  0  0
 27 57  1  0  0  0  0
 28 58  1  0  0  0  0
 29 31  2  0  0  0  0
 29 32  1  0  0  0  0
 30 59  1  0  0  0  0
 30 60  1  0  0  0  0
 30 61  1  0  0  0  0
 31 33  1  0  0  0  0
 31 62  1  0  0  0  0
 32 34  2  0  0  0  0
 32 63  1  0  0  0  0
 33 35  2  0  0  0  0
 33 64  1  0  0  0  0
 34 35  1  0  0  0  0
 34 65  1  0  0  0  0
 35 66  1  0  0  0  0
M  END
> <PUBCHEM_COMPOUND_CID>
57385272

> <PUBCHEM_CONFORMER_RMSD>
1.4

> <PUBCHEM_CONFORMER_DIVERSEORDER>
1
18
75
38
27
73
55
67
68
36
74
41
3
79
39
23
32
6
54
89
48
44
60
65
43
14
15
30
77
50
56
51
20
82
5
84
46
80
31
85
19
72
24
86
37
10
57
87
52
49
70
64
4
78
59
71
61
45
66
16
13
21
12
2
42
83
76
28
35
53
88
26
11
7
33
40
62
17
34
29
9
58
25
22
69
8
81
47
63

> <PUBCHEM_MMFF94_PARTIAL_CHARGES>
50
1 -0.68
10 0.3
11 0.3
12 0.27
13 0.28
14 0.69
15 0.28
16 0.12
17 0.08
18 0.09
19 -0.15
2 -0.36
20 -0.15
21 -0.15
22 -0.15
23 -0.15
24 -0.14
25 -0.15
26 0.4
27 -0.15
28 -0.15
29 0.09
3 -0.57
30 0.14
31 -0.15
32 -0.15
33 -0.15
34 -0.15
35 -0.15
4 -0.57
49 0.4
5 -0.81
50 0.37
51 0.15
52 0.15
53 0.15
54 0.15
55 0.15
56 0.15
57 0.15
58 0.15
6 -0.66
62 0.15
63 0.15
64 0.15
65 0.15
66 0.15
7 -0.55
8 0.27
9 0.27

> <PUBCHEM_EFFECTIVE_ROTOR_COUNT>
11.2

> <PUBCHEM_PHARMACOPHORE_FEATURES>
11
1 1 acceptor
1 1 donor
1 2 acceptor
1 3 acceptor
1 4 acceptor
1 5 cation
1 7 donor
6 16 19 20 22 23 24 rings
6 17 18 21 25 27 28 rings
6 29 31 32 33 34 35 rings
6 5 6 8 9 10 11 rings

> <PUBCHEM_HEAVY_ATOM_COUNT>
35

> <PUBCHEM_ATOM_DEF_STEREO_COUNT>
0

> <PUBCHEM_ATOM_UDEF_STEREO_COUNT>
1

> <PUBCHEM_BOND_DEF_STEREO_COUNT>
0

> <PUBCHEM_BOND_UDEF_STEREO_COUNT>
0

> <PUBCHEM_ISOTOPIC_ATOM_COUNT>
0

> <PUBCHEM_COMPONENT_COUNT>
1

> <PUBCHEM_CACTVS_TAUTO_COUNT>
2

> <PUBCHEM_CONFORMER_ID>
036BA13800000001

> <PUBCHEM_MMFF94_ENERGY>
110.9613

> <PUBCHEM_FEATURE_SELFOVERLAP>
55.826

> <PUBCHEM_SHAPE_FINGERPRINT>
10369192 42 13118283655208326161
10391435 84 18337665412991855688
10577160 183 17676478398995935416
10674148 151 17704068474711497137
10939801 23 18200600340939453172
11135926 11 18336267838559085547
11200772 48 17894348865184999779
11211813 140 18189043227832718690
11443803 9 16987451802810884041
11513181 2 17415853396352521199
13165053 103 18202565055822023119
14068700 675 17561077029698813321
14279260 333 18201153265410921815
14394314 77 18270405966537053728
14400156 162 17822589303761435763
14931854 50 18341313536727549375
15183329 4 18041272214780394462
15230672 131 17968085413626812826
15274700 208 16486393530947331202
15406563 228 18186523232379764084
15439362 3 17829041023418958997
17627616 140 18118122472281917435
19315092 285 14476667681205168709
19958102 18 18408600387665734229
23559900 14 18269832167543500993
32027 91 18340204197503131824
3383291 50 18272091625363398695
4394409 98 18333731299535970510
5080951 261 17346323640214566273
5085150 59 18343581837368372054
6009941 240 18040152916206981534
6376802 137 17203611484208492617
70634741 139 18265340675845629888

> <PUBCHEM_SHAPE_MULTIPOLES>
681.86
22.31
4.16
1.97
46.87
1.66
-0.3
7.19
7.59
-2.23
-1.47
-4.19
-1.05
0.12

> <PUBCHEM_SHAPE_SELFOVERLAP>
1455.492

> <PUBCHEM_SHAPE_VOLUME>
376.9

> <PUBCHEM_COORDINATE_TYPE>
2
5
10

$$$$