57385274
  -OEChem-03242010103D

 82 86  0     1  0  0  0  0  0999 V2000
    3.6954    0.9589   -3.7074 O   0  0  0  0  0  0  0  0  0  0  0  0
   -3.1817    1.3340    3.4807 O   0  0  0  0  0  0  0  0  0  0  0  0
    5.3158    0.8270   -1.4240 O   0  0  0  0  0  0  0  0  0  0  0  0
   -5.1940    0.8958    1.5789 O   0  0  0  0  0  0  0  0  0  0  0  0
    6.2844   -2.3473   -0.7082 O   0  0  0  0  0  0  0  0  0  0  0  0
   -5.9023   -2.4009    1.1832 O   0  0  0  0  0  0  0  0  0  0  0  0
    1.2060    2.0372   -1.1804 N   0  0  0  0  0  0  0  0  0  0  0  0
   -1.0879    2.1829    0.5731 N   0  0  0  0  0  0  0  0  0  0  0  0
   -0.3492    3.3900    0.1829 C   0  0  0  0  0  0  0  0  0  0  0  0
   -0.1964    1.0167    0.5796 C   0  0  0  0  0  0  0  0  0  0  0  0
    0.3157    3.2044   -1.1854 C   0  0  0  0  0  0  0  0  0  0  0  0
    0.4673    0.8304   -0.7892 C   0  0  0  0  0  0  0  0  0  0  0  0
    1.8361    1.8594   -2.4872 C   0  0  0  0  0  0  0  0  0  0  0  0
   -1.7200    2.3605    1.8789 C   0  0  0  0  0  0  0  0  0  0  0  0
   -2.9026    1.4101    2.0798 C   0  0  2  0  0  0  0  0  0  0  0  0
    3.1315    1.0492   -2.3958 C   0  0  2  0  0  0  0  0  0  0  0  0
    4.1685    1.6699   -1.4624 C   0  0  0  0  0  0  0  0  0  0  0  0
   -4.1695    1.8596    1.3552 C   0  0  0  0  0  0  0  0  0  0  0  0
   -6.1359    0.7596    0.5943 C   0  0  0  0  0  0  0  0  0  0  0  0
    6.0477    0.8369   -0.2667 C   0  0  0  0  0  0  0  0  0  0  0  0
   -6.3221   -0.4611   -0.0542 C   0  0  0  0  0  0  0  0  0  0  0  0
    6.2307   -0.3304    0.4747 C   0  0  0  0  0  0  0  0  0  0  0  0
   -6.9161    1.8616    0.2443 C   0  0  0  0  0  0  0  0  0  0  0  0
    6.6159    2.0347    0.1669 C   0  0  0  0  0  0  0  0  0  0  0  0
   -7.2887   -0.5800   -1.0527 C   0  0  0  0  0  0  0  0  0  0  0  0
    6.9817   -0.2998    1.6496 C   0  0  0  0  0  0  0  0  0  0  0  0
    7.3671    2.0653    1.3419 C   0  0  0  0  0  0  0  0  0  0  0  0
   -7.8827    1.7429   -0.7544 C   0  0  0  0  0  0  0  0  0  0  0  0
   -5.5194   -1.6243    0.2970 C   0  0  0  0  0  0  0  0  0  0  0  0
    5.6475   -1.5916    0.0391 C   0  0  0  0  0  0  0  0  0  0  0  0
   -8.0690    0.5220   -1.4029 C   0  0  0  0  0  0  0  0  0  0  0  0
    7.5501    0.8980    2.0832 C   0  0  0  0  0  0  0  0  0  0  0  0
    4.2836   -2.0292    0.4609 C   0  0  0  0  0  0  0  0  0  0  0  0
   -4.2237   -1.9339   -0.3773 C   0  0  0  0  0  0  0  0  0  0  0  0
    3.7725   -3.2478    0.0144 C   0  0  0  0  0  0  0  0  0  0  0  0
   -3.4940   -3.0620   -0.0023 C   0  0  0  0  0  0  0  0  0  0  0  0
   -3.7439   -1.0956   -1.3834 C   0  0  0  0  0  0  0  0  0  0  0  0
    3.5213   -1.2196    1.3028 C   0  0  0  0  0  0  0  0  0  0  0  0
    2.4989   -3.6569    0.4100 C   0  0  0  0  0  0  0  0  0  0  0  0
   -2.2842   -3.3518   -0.6335 C   0  0  0  0  0  0  0  0  0  0  0  0
    2.2478   -1.6286    1.6984 C   0  0  0  0  0  0  0  0  0  0  0  0
   -2.5342   -1.3853   -2.0147 C   0  0  0  0  0  0  0  0  0  0  0  0
    1.7365   -2.8472    1.2520 C   0  0  0  0  0  0  0  0  0  0  0  0
   -1.8044   -2.5134   -1.6397 C   0  0  0  0  0  0  0  0  0  0  0  0
   -0.2983    0.5865   -1.5364 H   0  0  0  0  0  0  0  0  0  0  0  0
    1.1413   -0.0297   -0.7228 H   0  0  0  0  0  0  0  0  0  0  0  0
    0.8907    4.1111   -1.4098 H   0  0  0  0  0  0  0  0  0  0  0  0
   -0.4552    3.1041   -1.9617 H   0  0  0  0  0  0  0  0  0  0  0  0
    0.5804    1.1252    1.3485 H   0  0  0  0  0  0  0  0  0  0  0  0
   -0.7509    0.0997    0.8051 H   0  0  0  0  0  0  0  0  0  0  0  0
   -1.0369    4.2418    0.1140 H   0  0  0  0  0  0  0  0  0  0  0  0
    0.4117    3.6424    0.9339 H   0  0  0  0  0  0  0  0  0  0  0  0
    1.1516    1.4089   -3.2188 H   0  0  0  0  0  0  0  0  0  0  0  0
    2.1016    2.8368   -2.9147 H   0  0  0  0  0  0  0  0  0  0  0  0
   -0.9895    2.2434    2.6913 H   0  0  0  0  0  0  0  0  0  0  0  0
   -2.1006    3.3857    1.9882 H   0  0  0  0  0  0  0  0  0  0  0  0
   -2.6540    0.3866    1.7811 H   0  0  0  0  0  0  0  0  0  0  0  0
    2.9242    0.0190   -2.0856 H   0  0  0  0  0  0  0  0  0  0  0  0
   -4.5149    2.8190    1.7578 H   0  0  0  0  0  0  0  0  0  0  0  0
   -3.9662    1.9714    0.2828 H   0  0  0  0  0  0  0  0  0  0  0  0
    4.4805    2.6491   -1.8442 H   0  0  0  0  0  0  0  0  0  0  0  0
    3.7521    1.7936   -0.4554 H   0  0  0  0  0  0  0  0  0  0  0  0
   -3.9429    0.7393    3.5943 H   0  0  0  0  0  0  0  0  0  0  0  0
    4.5202    0.4486   -3.6347 H   0  0  0  0  0  0  0  0  0  0  0  0
    6.4901    2.9504   -0.4043 H   0  0  0  0  0  0  0  0  0  0  0  0
   -6.7892    2.8167    0.7465 H   0  0  0  0  0  0  0  0  0  0  0  0
   -7.4438   -1.5261   -1.5651 H   0  0  0  0  0  0  0  0  0  0  0  0
    7.1319   -1.2029    2.2358 H   0  0  0  0  0  0  0  0  0  0  0  0
    7.8113    2.9975    1.6785 H   0  0  0  0  0  0  0  0  0  0  0  0
   -8.4917    2.6002   -1.0256 H   0  0  0  0  0  0  0  0  0  0  0  0
    8.1354    0.9217    2.9978 H   0  0  0  0  0  0  0  0  0  0  0  0
   -8.8220    0.4294   -2.1801 H   0  0  0  0  0  0  0  0  0  0  0  0
   -3.8446   -3.7312    0.7787 H   0  0  0  0  0  0  0  0  0  0  0  0
    4.3451   -3.8973   -0.6421 H   0  0  0  0  0  0  0  0  0  0  0  0
   -4.2811   -0.2078   -1.7028 H   0  0  0  0  0  0  0  0  0  0  0  0
    3.8825   -0.2641    1.6707 H   0  0  0  0  0  0  0  0  0  0  0  0
    2.0999   -4.6052    0.0618 H   0  0  0  0  0  0  0  0  0  0  0  0
   -1.7146   -4.2289   -0.3406 H   0  0  0  0  0  0  0  0  0  0  0  0
    1.6546   -1.0002    2.3561 H   0  0  0  0  0  0  0  0  0  0  0  0
   -2.1606   -0.7330   -2.7986 H   0  0  0  0  0  0  0  0  0  0  0  0
    0.7443   -3.1648    1.5590 H   0  0  0  0  0  0  0  0  0  0  0  0
   -0.8613   -2.7374   -2.1296 H   0  0  0  0  0  0  0  0  0  0  0  0
  1 16  1  0  0  0  0
  1 64  1  0  0  0  0
  2 15  1  0  0  0  0
  2 63  1  0  0  0  0
  3 17  1  0  0  0  0
  3 20  1  0  0  0  0
  4 18  1  0  0  0  0
  4 19  1  0  0  0  0
  5 30  2  0  0  0  0
  6 29  2  0  0  0  0
  7 11  1  0  0  0  0
  7 12  1  0  0  0  0
  7 13  1  0  0  0  0
  8  9  1  0  0  0  0
  8 10  1  0  0  0  0
  8 14  1  0  0  0  0
  9 11  1  0  0  0  0
  9 51  1  0  0  0  0
  9 52  1  0  0  0  0
 10 12  1  0  0  0  0
 10 49  1  0  0  0  0
 10 50  1  0  0  0  0
 11 47  1  0  0  0  0
 11 48  1  0  0  0  0
 12 45  1  0  0  0  0
 12 46  1  0  0  0  0
 13 16  1  0  0  0  0
 13 53  1  0  0  0  0
 13 54  1  0  0  0  0
 14 15  1  0  0  0  0
 14 55  1  0  0  0  0
 14 56  1  0  0  0  0
 15 18  1  0  0  0  0
 15 57  1  0  0  0  0
 16 17  1  0  0  0  0
 16 58  1  0  0  0  0
 17 61  1  0  0  0  0
 17 62  1  0  0  0  0
 18 59  1  0  0  0  0
 18 60  1  0  0  0  0
 19 21  1  0  0  0  0
 19 23  2  0  0  0  0
 20 22  1  0  0  0  0
 20 24  2  0  0  0  0
 21 25  2  0  0  0  0
 21 29  1  0  0  0  0
 22 26  2  0  0  0  0
 22 30  1  0  0  0  0
 23 28  1  0  0  0  0
 23 66  1  0  0  0  0
 24 27  1  0  0  0  0
 24 65  1  0  0  0  0
 25 31  1  0  0  0  0
 25 67  1  0  0  0  0
 26 32  1  0  0  0  0
 26 68  1  0  0  0  0
 27 32  2  0  0  0  0
 27 69  1  0  0  0  0
 28 31  2  0  0  0  0
 28 70  1  0  0  0  0
 29 34  1  0  0  0  0
 30 33  1  0  0  0  0
 31 72  1  0  0  0  0
 32 71  1  0  0  0  0
 33 35  2  0  0  0  0
 33 38  1  0  0  0  0
 34 36  2  0  0  0  0
 34 37  1  0  0  0  0
 35 39  1  0  0  0  0
 35 74  1  0  0  0  0
 36 40  1  0  0  0  0
 36 73  1  0  0  0  0
 37 42  2  0  0  0  0
 37 75  1  0  0  0  0
 38 41  2  0  0  0  0
 38 76  1  0  0  0  0
 39 43  2  0  0  0  0
 39 77  1  0  0  0  0
 40 44  2  0  0  0  0
 40 78  1  0  0  0  0
 41 43  1  0  0  0  0
 41 79  1  0  0  0  0
 42 44  1  0  0  0  0
 42 80  1  0  0  0  0
 43 81  1  0  0  0  0
 44 82  1  0  0  0  0
M  END
> <PUBCHEM_COMPOUND_CID>
57385274

> <PUBCHEM_CONFORMER_RMSD>
1.8

> <PUBCHEM_CONFORMER_DIVERSEORDER>
1
101
132
124
49
55
72
128
112
8
131
104
13
103
100
16
76
48
64
53
130
23
86
47
80
4
135
27
34
133
61
17
134
9
69
7
66
113
84
28
110
106
122
58
96
5
129
102
123
126
91
97
121
89
35
37
90
56
51
94
26
87
117
77
118
43
14
105
99
30
115
75
40
33
50
95
67
22
42
88
15
36
107
62
127
59
81
52
65
98
79
109
45
125
114
120
24
83
20
73
70
68
12
111
82
19
116
92
85
74
93
39
10
54
41
18
11
63
71
44
60
108
119
78
46
32
57
21
2
29
38
3
31
25
6

> <PUBCHEM_MMFF94_PARTIAL_CHARGES>
64
1 -0.68
10 0.27
11 0.27
12 0.27
13 0.27
14 0.27
15 0.28
16 0.28
17 0.28
18 0.28
19 0.08
2 -0.68
20 0.08
21 0.09
22 0.09
23 -0.15
24 -0.15
25 -0.15
26 -0.15
27 -0.15
28 -0.15
29 0.4
3 -0.36
30 0.4
31 -0.15
32 -0.15
33 0.09
34 0.09
35 -0.15
36 -0.15
37 -0.15
38 -0.15
39 -0.15
4 -0.36
40 -0.15
41 -0.15
42 -0.15
43 -0.15
44 -0.15
5 -0.57
6 -0.57
63 0.4
64 0.4
65 0.15
66 0.15
67 0.15
68 0.15
69 0.15
7 -0.81
70 0.15
71 0.15
72 0.15
73 0.15
74 0.15
75 0.15
76 0.15
77 0.15
78 0.15
79 0.15
8 -0.81
80 0.15
81 0.15
82 0.15
9 0.27

> <PUBCHEM_EFFECTIVE_ROTOR_COUNT>
15.2

> <PUBCHEM_PHARMACOPHORE_FEATURES>
15
1 1 acceptor
1 1 donor
1 2 acceptor
1 2 donor
1 3 acceptor
1 4 acceptor
1 5 acceptor
1 6 acceptor
1 7 cation
1 8 cation
6 19 21 23 25 28 31 rings
6 20 22 24 26 27 32 rings
6 33 35 38 39 41 43 rings
6 34 36 37 40 42 44 rings
6 7 8 9 10 11 12 rings

> <PUBCHEM_HEAVY_ATOM_COUNT>
44

> <PUBCHEM_ATOM_DEF_STEREO_COUNT>
0

> <PUBCHEM_ATOM_UDEF_STEREO_COUNT>
2

> <PUBCHEM_BOND_DEF_STEREO_COUNT>
0

> <PUBCHEM_BOND_UDEF_STEREO_COUNT>
0

> <PUBCHEM_ISOTOPIC_ATOM_COUNT>
0

> <PUBCHEM_COMPONENT_COUNT>
1

> <PUBCHEM_CACTVS_TAUTO_COUNT>
1

> <PUBCHEM_CONFORMER_ID>
036BA13A00000001

> <PUBCHEM_MMFF94_ENERGY>
144.5762

> <PUBCHEM_FEATURE_SELFOVERLAP>
76.135

> <PUBCHEM_SHAPE_FINGERPRINT>
13165054 235 18409439280620305231
14394314 77 18341896264731750617
15001296 14 18334580187073695030
15276724 80 18339073774863539254
15328829 1 18410577287981301767
15406563 5 18187646838821315948
15781502 145 18199752454234851297
20511986 3 18411698781256973451
21458453 9 15913041053599809296
4394409 98 18413388731525794263
4440575 13 18410564094048269835
44426699 60 18407758145892128949
50677037 204 18412831269849429170
5085150 59 18202286896791224847

> <PUBCHEM_SHAPE_MULTIPOLES>
860.32
23.02
4.35
2.5
4.59
1.85
-0.46
-3.59
2.88
-0.57
0.08
-1
-1.24
-2.03

> <PUBCHEM_SHAPE_SELFOVERLAP>
1846.802

> <PUBCHEM_SHAPE_VOLUME>
473.2

> <PUBCHEM_COORDINATE_TYPE>
2
5
10

$$$$