9981658
  -OEChem-03242010103D

 67 70  0     1  0  0  0  0  0999 V2000
    3.6233   -1.6215   -2.0370 O   0  0  0  0  0  0  0  0  0  0  0  0
   -0.4811    4.0274   -2.9226 O   0  0  0  0  0  0  0  0  0  0  0  0
   -1.1172    3.3356   -0.3057 O   0  0  0  0  0  0  0  0  0  0  0  0
   -3.3230    1.9062   -0.7830 O   0  0  0  0  0  0  0  0  0  0  0  0
    1.4319    1.1958   -1.4821 N   0  0  0  0  0  0  0  0  0  0  0  0
    3.4743   -0.8602   -0.8293 C   0  0  0  0  0  0  0  0  0  0  0  0
    1.9941   -0.9492   -0.3952 C   0  0  0  0  0  0  0  0  0  0  0  0
    3.8171    0.6213   -1.1097 C   0  0  0  0  0  0  0  0  0  0  0  0
    1.0439   -0.2122   -1.3461 C   0  0  0  0  0  0  0  0  0  0  0  0
    2.7930    1.3196   -2.0135 C   0  0  0  0  0  0  0  0  0  0  0  0
    0.4814    1.9099   -2.3342 C   0  0  0  0  0  0  0  0  0  0  0  0
    4.4739   -1.4641    0.1585 C   0  0  0  0  0  0  0  0  0  0  0  0
    0.5003    3.4189   -2.0784 C   0  0  2  0  0  0  0  0  0  0  0  0
    5.8388   -1.4413   -0.1284 C   0  0  0  0  0  0  0  0  0  0  0  0
    4.0205   -2.0383    1.3462 C   0  0  0  0  0  0  0  0  0  0  0  0
    0.1930    3.7905   -0.6294 C   0  0  0  0  0  0  0  0  0  0  0  0
    6.7501   -1.9924    0.7724 C   0  0  0  0  0  0  0  0  0  0  0  0
    4.9319   -2.5893    2.2470 C   0  0  0  0  0  0  0  0  0  0  0  0
    6.2966   -2.5664    1.9601 C   0  0  0  0  0  0  0  0  0  0  0  0
   -1.3400    2.9782    0.9972 C   0  0  0  0  0  0  0  0  0  0  0  0
   -2.2744    1.9941    1.3200 C   0  0  0  0  0  0  0  0  0  0  0  0
   -0.6169    3.6117    2.0080 C   0  0  0  0  0  0  0  0  0  0  0  0
   -3.0390    1.3195    0.2802 C   0  0  0  0  0  0  0  0  0  0  0  0
   -3.5047   -0.1323    0.4902 C   0  0  0  0  0  0  0  0  0  0  0  0
   -2.4854    1.6434    2.6535 C   0  0  0  0  0  0  0  0  0  0  0  0
   -3.6447   -0.9188   -0.8151 C   0  0  0  0  0  0  0  0  0  0  0  0
   -0.8280    3.2609    3.3415 C   0  0  0  0  0  0  0  0  0  0  0  0
   -1.7622    2.2769    3.6641 C   0  0  0  0  0  0  0  0  0  0  0  0
   -4.1103   -2.3306   -0.5677 C   0  0  0  0  0  0  0  0  0  0  0  0
   -3.1773   -3.3460   -0.3576 C   0  0  0  0  0  0  0  0  0  0  0  0
   -5.4744   -2.6219   -0.5482 C   0  0  0  0  0  0  0  0  0  0  0  0
   -3.6081   -4.6527   -0.1283 C   0  0  0  0  0  0  0  0  0  0  0  0
   -5.9052   -3.9287   -0.3187 C   0  0  0  0  0  0  0  0  0  0  0  0
   -4.9720   -4.9440   -0.1088 C   0  0  0  0  0  0  0  0  0  0  0  0
    1.8610   -0.5112    0.6033 H   0  0  0  0  0  0  0  0  0  0  0  0
    1.6727   -1.9977   -0.3479 H   0  0  0  0  0  0  0  0  0  0  0  0
    4.7937    0.7095   -1.6010 H   0  0  0  0  0  0  0  0  0  0  0  0
    3.8839    1.1707   -0.1604 H   0  0  0  0  0  0  0  0  0  0  0  0
    1.0112   -0.7122   -2.3222 H   0  0  0  0  0  0  0  0  0  0  0  0
    0.0346   -0.2783   -0.9201 H   0  0  0  0  0  0  0  0  0  0  0  0
    2.8579    0.9146   -3.0316 H   0  0  0  0  0  0  0  0  0  0  0  0
    3.0864    2.3735   -2.0749 H   0  0  0  0  0  0  0  0  0  0  0  0
    0.6514    1.7032   -3.3998 H   0  0  0  0  0  0  0  0  0  0  0  0
   -0.5410    1.5535   -2.1456 H   0  0  0  0  0  0  0  0  0  0  0  0
    1.4651    3.8489   -2.3647 H   0  0  0  0  0  0  0  0  0  0  0  0
    3.0823   -1.2204   -2.7355 H   0  0  0  0  0  0  0  0  0  0  0  0
    6.2140   -1.0112   -1.0526 H   0  0  0  0  0  0  0  0  0  0  0  0
    2.9713   -2.0906    1.6146 H   0  0  0  0  0  0  0  0  0  0  0  0
    0.9670    3.3593    0.0170 H   0  0  0  0  0  0  0  0  0  0  0  0
    0.2029    4.8821   -0.5268 H   0  0  0  0  0  0  0  0  0  0  0  0
    7.8126   -1.9774    0.5478 H   0  0  0  0  0  0  0  0  0  0  0  0
    4.5795   -3.0384    3.1711 H   0  0  0  0  0  0  0  0  0  0  0  0
   -1.3543    3.7003   -2.6458 H   0  0  0  0  0  0  0  0  0  0  0  0
    7.0062   -2.9965    2.6608 H   0  0  0  0  0  0  0  0  0  0  0  0
    0.0951    4.4067    1.8074 H   0  0  0  0  0  0  0  0  0  0  0  0
   -2.7805   -0.6469    1.1333 H   0  0  0  0  0  0  0  0  0  0  0  0
   -4.4653   -0.0972    1.0181 H   0  0  0  0  0  0  0  0  0  0  0  0
   -3.2171    0.8929    2.9392 H   0  0  0  0  0  0  0  0  0  0  0  0
   -2.6867   -0.9297   -1.3511 H   0  0  0  0  0  0  0  0  0  0  0  0
   -4.3492   -0.4152   -1.4896 H   0  0  0  0  0  0  0  0  0  0  0  0
   -0.2715    3.7598    4.1296 H   0  0  0  0  0  0  0  0  0  0  0  0
   -1.9303    2.0079    4.7029 H   0  0  0  0  0  0  0  0  0  0  0  0
   -2.1121   -3.1308   -0.3687 H   0  0  0  0  0  0  0  0  0  0  0  0
   -6.2110   -1.8391   -0.7085 H   0  0  0  0  0  0  0  0  0  0  0  0
   -2.8816   -5.4431    0.0357 H   0  0  0  0  0  0  0  0  0  0  0  0
   -6.9672   -4.1556   -0.3030 H   0  0  0  0  0  0  0  0  0  0  0  0
   -5.3074   -5.9614    0.0701 H   0  0  0  0  0  0  0  0  0  0  0  0
  1  6  1  0  0  0  0
  1 46  1  0  0  0  0
  2 13  1  0  0  0  0
  2 53  1  0  0  0  0
  3 16  1  0  0  0  0
  3 20  1  0  0  0  0
  4 23  2  0  0  0  0
  5  9  1  0  0  0  0
  5 10  1  0  0  0  0
  5 11  1  0  0  0  0
  6  7  1  0  0  0  0
  6  8  1  0  0  0  0
  6 12  1  0  0  0  0
  7  9  1  0  0  0  0
  7 35  1  0  0  0  0
  7 36  1  0  0  0  0
  8 10  1  0  0  0  0
  8 37  1  0  0  0  0
  8 38  1  0  0  0  0
  9 39  1  0  0  0  0
  9 40  1  0  0  0  0
 10 41  1  0  0  0  0
 10 42  1  0  0  0  0
 11 13  1  0  0  0  0
 11 43  1  0  0  0  0
 11 44  1  0  0  0  0
 12 14  2  0  0  0  0
 12 15  1  0  0  0  0
 13 16  1  0  0  0  0
 13 45  1  0  0  0  0
 14 17  1  0  0  0  0
 14 47  1  0  0  0  0
 15 18  2  0  0  0  0
 15 48  1  0  0  0  0
 16 49  1  0  0  0  0
 16 50  1  0  0  0  0
 17 19  2  0  0  0  0
 17 51  1  0  0  0  0
 18 19  1  0  0  0  0
 18 52  1  0  0  0  0
 19 54  1  0  0  0  0
 20 21  1  0  0  0  0
 20 22  2  0  0  0  0
 21 23  1  0  0  0  0
 21 25  2  0  0  0  0
 22 27  1  0  0  0  0
 22 55  1  0  0  0  0
 23 24  1  0  0  0  0
 24 26  1  0  0  0  0
 24 56  1  0  0  0  0
 24 57  1  0  0  0  0
 25 28  1  0  0  0  0
 25 58  1  0  0  0  0
 26 29  1  0  0  0  0
 26 59  1  0  0  0  0
 26 60  1  0  0  0  0
 27 28  2  0  0  0  0
 27 61  1  0  0  0  0
 28 62  1  0  0  0  0
 29 30  2  0  0  0  0
 29 31  1  0  0  0  0
 30 32  1  0  0  0  0
 30 63  1  0  0  0  0
 31 33  2  0  0  0  0
 31 64  1  0  0  0  0
 32 34  2  0  0  0  0
 32 65  1  0  0  0  0
 33 34  1  0  0  0  0
 33 66  1  0  0  0  0
 34 67  1  0  0  0  0
M  END
> <PUBCHEM_COMPOUND_CID>
9981658

> <PUBCHEM_CONFORMER_RMSD>
1.4

> <PUBCHEM_CONFORMER_DIVERSEORDER>
2
91
127
117
10
137
82
108
74
136
6
66
101
24
121
100
27
18
36
92
1
73
14
4
129
63
56
5
105
70
54
48
65
99
86
13
123
37
88
38
29
141
142
107
62
126
109
33
118
76
97
102
134
110
22
81
79
84
51
122
30
111
116
94
132
7
124
21
115
133
59
135
52
32
19
40
80
46
125
43
130
50
77
39
113
138
95
28
69
68
83
67
87
112
16
9
140
44
55
71
89
90
57
35
15
45
78
49
103
42
31
85
17
119
53
75
131
128
3
106
139
8
114
58
60
98
41
20
26
25
34
61
72
120
47
64
96
11
12
23
93
104

> <PUBCHEM_MMFF94_PARTIAL_CHARGES>
48
1 -0.68
10 0.27
11 0.27
12 -0.14
13 0.28
14 -0.15
15 -0.15
16 0.28
17 -0.15
18 -0.15
19 -0.15
2 -0.68
20 0.08
21 0.09
22 -0.15
23 0.42
24 0.06
25 -0.15
26 0.14
27 -0.15
28 -0.15
29 -0.14
3 -0.36
30 -0.15
31 -0.15
32 -0.15
33 -0.15
34 -0.15
4 -0.57
46 0.4
47 0.15
48 0.15
5 -0.81
51 0.15
52 0.15
53 0.4
54 0.15
55 0.15
58 0.15
6 0.42
61 0.15
62 0.15
63 0.15
64 0.15
65 0.15
66 0.15
67 0.15
9 0.27

> <PUBCHEM_EFFECTIVE_ROTOR_COUNT>
11.2

> <PUBCHEM_PHARMACOPHORE_FEATURES>
11
1 1 acceptor
1 1 donor
1 2 acceptor
1 2 donor
1 3 acceptor
1 4 acceptor
1 5 cation
6 12 14 15 17 18 19 rings
6 20 21 22 25 27 28 rings
6 29 30 31 32 33 34 rings
6 5 6 7 8 9 10 rings

> <PUBCHEM_HEAVY_ATOM_COUNT>
34

> <PUBCHEM_ATOM_DEF_STEREO_COUNT>
0

> <PUBCHEM_ATOM_UDEF_STEREO_COUNT>
1

> <PUBCHEM_BOND_DEF_STEREO_COUNT>
0

> <PUBCHEM_BOND_UDEF_STEREO_COUNT>
0

> <PUBCHEM_ISOTOPIC_ATOM_COUNT>
0

> <PUBCHEM_COMPONENT_COUNT>
1

> <PUBCHEM_CACTVS_TAUTO_COUNT>
2

> <PUBCHEM_CONFORMER_ID>
00984EDA00000002

> <PUBCHEM_MMFF94_ENERGY>
98.47

> <PUBCHEM_FEATURE_SELFOVERLAP>
55.834

> <PUBCHEM_SHAPE_FINGERPRINT>
10074138 170 17916882196856265873
10319688 77 18040715857385800540
10462674 125 18410566310535964918
10622 236 18261111893552478271
11434127 23 17559102178282326234
11456790 92 18340495556323314379
11534866 41 17115512299464674067
12128747 34 17057249844118016470
12655364 131 16971359182326801218
14040221 299 17987800692315693862
14068700 675 18410854399519737687
14844126 61 17751636538056493732
14950920 106 18200868488137038880
15968369 26 17253408615529887987
19315092 285 18411698833287549008
19319366 153 17473550629770530015
20775530 9 18270124659532831725
22956985 138 17981311597715324515
4394409 98 18191012414581915941
50080093 196 17751632152847977826
613672 6 17989489632444137671
6609424 69 13654519264083116174
86090 222 16180748259773167851
9961470 85 17909833133163733007

> <PUBCHEM_SHAPE_MULTIPOLES>
671.25
13.53
7.23
3.08
9.77
0.8
-1.59
23.94
-2.83
-8.45
-0.93
1.22
-3.95
-4.62

> <PUBCHEM_SHAPE_SELFOVERLAP>
1430.906

> <PUBCHEM_SHAPE_VOLUME>
370.8

> <PUBCHEM_COORDINATE_TYPE>
2
5
10

$$$$