16451263
  -OEChem-03242010103D

 59 62  0     1  0  0  0  0  0999 V2000
    6.0259   -4.3709   -0.0120 F   0  0  0  0  0  0  0  0  0  0  0  0
    0.1299    6.1078    0.4363 O   0  0  0  0  0  0  0  0  0  0  0  0
   -1.4480    3.6562   -0.2083 O   0  0  0  0  0  0  0  0  0  0  0  0
   -5.6974   -1.0133   -0.6579 O   0  0  0  0  0  0  0  0  0  0  0  0
    1.6079    2.7466   -0.0815 N   0  0  0  0  0  0  0  0  0  0  0  0
    3.2499    0.4093   -0.1076 N   0  0  0  0  0  0  0  0  0  0  0  0
    1.8752    2.0412   -1.3411 C   0  0  0  0  0  0  0  0  0  0  0  0
    2.7753    2.6484    0.8030 C   0  0  0  0  0  0  0  0  0  0  0  0
    2.1687    0.5604   -1.0895 C   0  0  0  0  0  0  0  0  0  0  0  0
    3.1001    1.1877    1.1257 C   0  0  0  0  0  0  0  0  0  0  0  0
    1.2754    4.1472   -0.3386 C   0  0  0  0  0  0  0  0  0  0  0  0
    0.4389    4.7564    0.7891 C   0  0  2  0  0  0  0  0  0  0  0  0
    3.9517   -0.8011   -0.0835 C   0  0  0  0  0  0  0  0  0  0  0  0
   -0.8684    4.0094    1.0438 C   0  0  0  0  0  0  0  0  0  0  0  0
    4.6381   -1.2317   -1.2190 C   0  0  0  0  0  0  0  0  0  0  0  0
    3.9659   -1.5764    1.0759 C   0  0  0  0  0  0  0  0  0  0  0  0
    5.3386   -2.4377   -1.1949 C   0  0  0  0  0  0  0  0  0  0  0  0
    4.6663   -2.7824    1.1000 C   0  0  0  0  0  0  0  0  0  0  0  0
    5.3527   -3.2129   -0.0353 C   0  0  0  0  0  0  0  0  0  0  0  0
   -2.1924    2.5075   -0.2396 C   0  0  0  0  0  0  0  0  0  0  0  0
   -2.2673    1.7566   -1.4126 C   0  0  0  0  0  0  0  0  0  0  0  0
   -2.8764    2.0885    0.9017 C   0  0  0  0  0  0  0  0  0  0  0  0
   -3.7097    0.1674   -0.3033 C   0  0  0  0  0  0  0  0  0  0  0  0
   -3.0258    0.5866   -1.4445 C   0  0  0  0  0  0  0  0  0  0  0  0
   -3.6351    0.9184    0.8699 C   0  0  0  0  0  0  0  0  0  0  0  0
   -4.5005   -1.0528   -0.3366 C   0  0  0  0  0  0  0  0  0  0  0  0
   -3.9262   -2.3888    0.0062 C   0  0  0  0  0  0  0  0  0  0  0  0
   -2.5855   -2.4976    0.3759 C   0  0  0  0  0  0  0  0  0  0  0  0
   -4.7306   -3.5274   -0.0428 C   0  0  0  0  0  0  0  0  0  0  0  0
   -2.0492   -3.7448    0.6963 C   0  0  0  0  0  0  0  0  0  0  0  0
   -4.1943   -4.7746    0.2778 C   0  0  0  0  0  0  0  0  0  0  0  0
   -2.8536   -4.8832    0.6472 C   0  0  0  0  0  0  0  0  0  0  0  0
    2.7214    2.5006   -1.8698 H   0  0  0  0  0  0  0  0  0  0  0  0
    1.0029    2.1042   -2.0028 H   0  0  0  0  0  0  0  0  0  0  0  0
    2.5885    3.1656    1.7507 H   0  0  0  0  0  0  0  0  0  0  0  0
    3.6532    3.1212    0.3417 H   0  0  0  0  0  0  0  0  0  0  0  0
    1.2684    0.0563   -0.7144 H   0  0  0  0  0  0  0  0  0  0  0  0
    2.4221    0.0958   -2.0493 H   0  0  0  0  0  0  0  0  0  0  0  0
    4.0270    1.1678    1.7125 H   0  0  0  0  0  0  0  0  0  0  0  0
    2.2979    0.7612    1.7416 H   0  0  0  0  0  0  0  0  0  0  0  0
    2.1755    4.7551   -0.5075 H   0  0  0  0  0  0  0  0  0  0  0  0
    0.7102    4.2473   -1.2760 H   0  0  0  0  0  0  0  0  0  0  0  0
    1.0102    4.8144    1.7211 H   0  0  0  0  0  0  0  0  0  0  0  0
   -0.6274    3.1187    1.6384 H   0  0  0  0  0  0  0  0  0  0  0  0
   -1.5719    4.6427    1.5962 H   0  0  0  0  0  0  0  0  0  0  0  0
    4.6514   -0.6351   -2.1276 H   0  0  0  0  0  0  0  0  0  0  0  0
    3.4313   -1.2795    1.9736 H   0  0  0  0  0  0  0  0  0  0  0  0
   -0.4287    6.0862   -0.3596 H   0  0  0  0  0  0  0  0  0  0  0  0
    5.8759   -2.7719   -2.0775 H   0  0  0  0  0  0  0  0  0  0  0  0
    4.6751   -3.3881    2.0014 H   0  0  0  0  0  0  0  0  0  0  0  0
   -1.7361    2.0781   -2.3042 H   0  0  0  0  0  0  0  0  0  0  0  0
   -2.8685    2.6585    1.8259 H   0  0  0  0  0  0  0  0  0  0  0  0
   -3.0766    0.0092   -2.3640 H   0  0  0  0  0  0  0  0  0  0  0  0
   -4.1693    0.6042    1.7630 H   0  0  0  0  0  0  0  0  0  0  0  0
   -1.9270   -1.6357    0.4260 H   0  0  0  0  0  0  0  0  0  0  0  0
   -5.7778   -3.4711   -0.3272 H   0  0  0  0  0  0  0  0  0  0  0  0
   -1.0053   -3.8299    0.9839 H   0  0  0  0  0  0  0  0  0  0  0  0
   -4.8203   -5.6614    0.2397 H   0  0  0  0  0  0  0  0  0  0  0  0
   -2.4361   -5.8543    0.8967 H   0  0  0  0  0  0  0  0  0  0  0  0
  1 19  1  0  0  0  0
  2 12  1  0  0  0  0
  2 48  1  0  0  0  0
  3 14  1  0  0  0  0
  3 20  1  0  0  0  0
  4 26  2  0  0  0  0
  5  7  1  0  0  0  0
  5  8  1  0  0  0  0
  5 11  1  0  0  0  0
  6  9  1  0  0  0  0
  6 10  1  0  0  0  0
  6 13  1  0  0  0  0
  7  9  1  0  0  0  0
  7 33  1  0  0  0  0
  7 34  1  0  0  0  0
  8 10  1  0  0  0  0
  8 35  1  0  0  0  0
  8 36  1  0  0  0  0
  9 37  1  0  0  0  0
  9 38  1  0  0  0  0
 10 39  1  0  0  0  0
 10 40  1  0  0  0  0
 11 12  1  0  0  0  0
 11 41  1  0  0  0  0
 11 42  1  0  0  0  0
 12 14  1  0  0  0  0
 12 43  1  0  0  0  0
 13 15  2  0  0  0  0
 13 16  1  0  0  0  0
 14 44  1  0  0  0  0
 14 45  1  0  0  0  0
 15 17  1  0  0  0  0
 15 46  1  0  0  0  0
 16 18  2  0  0  0  0
 16 47  1  0  0  0  0
 17 19  2  0  0  0  0
 17 49  1  0  0  0  0
 18 19  1  0  0  0  0
 18 50  1  0  0  0  0
 20 21  2  0  0  0  0
 20 22  1  0  0  0  0
 21 24  1  0  0  0  0
 21 51  1  0  0  0  0
 22 25  2  0  0  0  0
 22 52  1  0  0  0  0
 23 24  2  0  0  0  0
 23 25  1  0  0  0  0
 23 26  1  0  0  0  0
 24 53  1  0  0  0  0
 25 54  1  0  0  0  0
 26 27  1  0  0  0  0
 27 28  2  0  0  0  0
 27 29  1  0  0  0  0
 28 30  1  0  0  0  0
 28 55  1  0  0  0  0
 29 31  2  0  0  0  0
 29 56  1  0  0  0  0
 30 32  2  0  0  0  0
 30 57  1  0  0  0  0
 31 32  1  0  0  0  0
 31 58  1  0  0  0  0
 32 59  1  0  0  0  0
M  END
> <PUBCHEM_COMPOUND_CID>
16451263

> <PUBCHEM_CONFORMER_RMSD>
1

> <PUBCHEM_CONFORMER_DIVERSEORDER>
1
16
115
24
43
101
112
65
31
113
46
5
118
45
69
89
18
27
117
83
40
39
97
7
114
58
94
57
13
110
88
20
60
28
25
10
48
82
26
33
84
23
42
75
38
116
9
22
15
21
72
111
79
100
61
104
107
6
53
86
109
105
35
49
14
59
54
76
32
19
77
66
67
37
11
93
99
80
92
71
47
108
90
51
56
36
73
30
12
102
2
96
91
85
81
70
78
74
106
55
62
3
52
64
50
87
44
63
68
8
95
17
103
41
34
29
98
4

> <PUBCHEM_MMFF94_PARTIAL_CHARGES>
46
1 -0.19
10 0.37
11 0.27
12 0.28
13 0.1
14 0.28
15 -0.15
16 -0.15
17 -0.15
18 -0.15
19 0.19
2 -0.68
20 0.08
21 -0.15
22 -0.15
23 0.09
24 -0.15
25 -0.15
26 0.4
27 0.09
28 -0.15
29 -0.15
3 -0.36
30 -0.15
31 -0.15
32 -0.15
4 -0.57
46 0.15
47 0.15
48 0.4
49 0.15
5 -0.81
50 0.15
51 0.15
52 0.15
53 0.15
54 0.15
55 0.15
56 0.15
57 0.15
58 0.15
59 0.15
6 -0.84
7 0.27
8 0.27
9 0.37

> <PUBCHEM_EFFECTIVE_ROTOR_COUNT>
9.2

> <PUBCHEM_PHARMACOPHORE_FEATURES>
10
1 2 acceptor
1 2 donor
1 3 acceptor
1 4 acceptor
1 5 cation
1 6 cation
6 13 15 16 17 18 19 rings
6 20 21 22 23 24 25 rings
6 27 28 29 30 31 32 rings
6 5 6 7 8 9 10 rings

> <PUBCHEM_HEAVY_ATOM_COUNT>
32

> <PUBCHEM_ATOM_DEF_STEREO_COUNT>
0

> <PUBCHEM_ATOM_UDEF_STEREO_COUNT>
1

> <PUBCHEM_BOND_DEF_STEREO_COUNT>
0

> <PUBCHEM_BOND_UDEF_STEREO_COUNT>
0

> <PUBCHEM_ISOTOPIC_ATOM_COUNT>
0

> <PUBCHEM_COMPONENT_COUNT>
1

> <PUBCHEM_CACTVS_TAUTO_COUNT>
1

> <PUBCHEM_CONFORMER_ID>
00FB06BF00000001

> <PUBCHEM_MMFF94_ENERGY>
110.5858

> <PUBCHEM_FEATURE_SELFOVERLAP>
50.75

> <PUBCHEM_SHAPE_FINGERPRINT>
10075450 59 16970581256159730302
10305334 12 17984144764898392233
10838868 229 18047763873846129243
10928967 22 18115025195381434522
11285246 1 17967818266423235595
11409948 41 17551217898771944735
11763389 116 17688311179714955925
12218070 45 17179371432395042650
12969540 37 18121217851101839021
1361 2 16969985351021616379
14659021 117 18266452118992573528
14725015 67 18196647398373257661
14866123 147 18268716018014188769
15001296 14 18187918530063077019
15320291 9 18047751782474038251
15320294 125 17755865212721891646
15320467 1 17978228584138617234
15400415 2 17257934798327506720
15419008 42 17613683301553655415
15538507 19 18338230475985673962
17909252 39 18193282012212944642
19301676 85 18411129252295552175
19311894 1 18337954471984681379
19611394 137 18127393568425108298
20501277 246 17986379208258716104
20775438 99 17690798605960939983
20775530 9 18337957895199476015
22440779 20 15622326718463939196
23559900 14 18339072804612257043
3044373 233 18118979228337417675
325973 47 18338519741262685647
3383291 50 18123746449021080577
404807 14 18410859871867300779
4394409 98 17827896465762134741
4435113 14 17558002645254347038
4461854 278 16534275311108520259
463206 1 18408046203814176843
4756261 7 17832110065404464112
484985 159 17975972068487706116
49967989 163 18123488094217367270
50080093 196 16974481241135542862
54324442 115 18339362933616565270
581034 39 17401466166575544794
613672 6 18267840887576880504
6433294 58 17905325487454902249
7970288 3 18410856568256104420
86090 222 17115527683551653117

> <PUBCHEM_SHAPE_MULTIPOLES>
623.7
12.73
8.95
1.24
3.9
2.62
-0.17
-18.93
-0.99
0.68
2.22
0.51
0.27
0.87

> <PUBCHEM_SHAPE_SELFOVERLAP>
1340.786

> <PUBCHEM_SHAPE_VOLUME>
344.8

> <PUBCHEM_COORDINATE_TYPE>
2
5
10

$$$$