16
 OpenBabel03292021423D

164166  0  0  1  0  0  0  0  0999 V2000
    6.8103    1.4183    3.3670 C   0  0  0  0  0  0  0  0  0  0  0  0
    6.8660    2.0636    4.7704 C   0  0  0  0  0  0  0  0  0  0  0  0
    5.5221    2.4302    5.5404 C   0  0  2  0  0  0  0  0  0  0  0  0
    4.4377    2.7582    4.4895 C   0  0  0  0  0  0  0  0  0  0  0  0
    4.8806    1.3595    6.6520 C   0  0  2  0  0  0  0  0  0  0  0  0
    4.6613    1.5191    8.4468 N   0  0  0  0  0  0  0  0  0  0  0  0
    5.5650    1.5859   10.1044 C   0  0  0  0  0  0  0  0  0  0  0  0
    6.7233    1.9947   10.3130 O   0  0  0  0  0  0  0  0  0  0  0  0
    5.1155    1.1719   11.8090 C   0  0  2  0  0  0  0  0  0  0  0  0
    6.3330    0.3891   12.4037 C   0  0  0  0  0  0  0  0  0  0  0  0
    5.7987   -0.6649   13.3637 C   0  0  0  0  0  0  0  0  0  0  0  0
    4.2958   -0.6284   13.2055 C   0  0  0  0  0  0  0  0  0  0  0  0
    4.0211    0.7251   12.7259 N   0  0  0  0  0  0  0  0  0  0  0  0
    3.3217    1.5058   13.6593 C   0  0  0  0  0  0  0  0  0  0  0  0
    2.4695    0.9783   14.3897 O   0  0  0  0  0  0  0  0  0  0  0  0
    3.6647    2.9981   13.9307 C   0  0  1  0  0  0  0  0  0  0  0  0
    4.9242    3.0932   14.8085 C   0  0  0  0  0  0  0  0  0  0  0  0
    3.5646    3.8422   12.7172 N   0  0  0  0  0  0  0  0  0  0  0  0
    2.2006    4.2086   12.3424 C   0  0  0  0  0  0  0  0  0  0  0  0
    4.6977    4.2968   12.0666 C   0  0  0  0  0  0  0  0  0  0  0  0
    5.7591    4.3985   12.6796 O   0  0  0  0  0  0  0  0  0  0  0  0
    4.6858    4.5728   10.5479 C   0  0  2  0  0  0  0  0  0  0  0  0
    4.4691    3.3989    9.5233 C   0  0  0  0  0  0  0  0  0  0  0  0
    3.3599    1.9330   10.0935 C   0  0  0  0  0  0  0  0  0  0  0  0
    3.9570    0.0963    9.8273 C   0  0  0  0  0  0  0  0  0  0  0  0
    5.6478   -0.2361    8.9653 C   0  0  0  0  0  0  0  0  0  0  0  0
    6.7005    1.2472    8.2730 C   0  0  0  0  0  0  0  0  0  0  0  0
    6.0629    3.0700    8.5226 C   0  0  0  0  0  0  0  0  0  0  0  0
    5.7890    5.5114   10.2112 N   0  0  0  0  0  0  0  0  0  0  0  0
    7.1457    5.5998   10.3328 C   0  0  0  0  0  0  0  0  0  0  0  0
    7.5722    6.6770    9.8728 O   0  0  0  0  0  0  0  0  0  0  0  0
    8.1896    4.5281   10.9189 C   0  0  2  0  0  0  0  0  0  0  0  0
    9.0493    5.2357   12.0355 C   0  0  0  0  0  0  0  0  0  0  0  0
   10.2184    4.3787   12.5314 C   0  0  0  0  0  0  0  0  0  0  0  0
    8.2310    5.6659   13.2573 C   0  0  0  0  0  0  0  0  0  0  0  0
    9.1170    3.9920    9.8039 N   0  0  0  0  0  0  0  0  0  0  0  0
    9.7142    5.0288    8.9778 C   0  0  0  0  0  0  0  0  0  0  0  0
    9.5259    2.6334    9.7877 C   0  0  0  0  0  0  0  0  0  0  0  0
    9.4005    1.9376   10.8090 O   0  0  0  0  0  0  0  0  0  0  0  0
   10.0347    1.8386    8.4660 C   0  0  1  0  0  0  0  0  0  0  0  0
   10.8504    2.6449    7.4218 C   0  0  1  0  0  0  0  0  0  0  0  0
   12.2839    2.9260    7.8831 C   0  0  0  0  0  0  0  0  0  0  0  0
   10.8306    2.0596    5.9925 C   0  0  0  0  0  0  0  0  0  0  0  0
   11.1358    3.1373    4.9416 C   0  0  0  0  0  0  0  0  0  0  0  0
   10.7341    0.5961    8.8950 O   0  0  0  0  0  0  0  0  0  0  0  0
   10.4155   -0.6931    8.5299 C   0  0  0  0  0  0  0  0  0  0  0  0
   11.2209   -1.3464    7.8628 O   0  0  0  0  0  0  0  0  0  0  0  0
    9.1551   -1.3870    9.1802 C   0  0  2  0  0  0  0  0  0  0  0  0
    9.3316   -1.8351   10.6797 C   0  0  0  0  0  0  0  0  0  0  0  0
    8.0797   -2.5872   11.1937 C   0  0  0  0  0  0  0  0  0  0  0  0
   10.5405   -2.7318   10.9588 C   0  0  0  0  0  0  0  0  0  0  0  0
    9.4790   -0.7198   11.5739 O   0  0  0  0  0  0  0  0  0  0  0  0
    8.5047   -2.4979    8.3173 N   0  0  0  0  0  0  0  0  0  0  0  0
    9.1432   -3.8046    8.2594 C   0  0  0  0  0  0  0  0  0  0  0  0
    7.6291   -2.0960    7.3084 C   0  0  0  0  0  0  0  0  0  0  0  0
    7.6953   -0.9116    7.0043 O   0  0  0  0  0  0  0  0  0  0  0  0
    6.5867   -3.1076    6.6327 C   0  0  2  0  0  0  0  0  0  0  0  0
    6.7826   -3.3040    5.1033 C   0  0  0  0  0  0  0  0  0  0  0  0
    8.1671   -3.2424    4.3896 C   0  0  0  0  0  0  0  0  0  0  0  0
    9.0738   -4.4508    4.6299 C   0  0  0  0  0  0  0  0  0  0  0  0
    8.9780   -1.9566    4.5558 C   0  0  0  0  0  0  0  0  0  0  0  0
    5.0627   -3.2515    7.0328 N   0  0  0  0  0  0  0  0  0  0  0  0
    3.7682   -2.7869    6.9299 C   0  0  0  0  0  0  0  0  0  0  0  0
    2.9262   -3.6376    7.2709 O   0  0  0  0  0  0  0  0  0  0  0  0
    3.2226   -1.3180    6.6483 C   0  0  2  0  0  0  0  0  0  0  0  0
    1.6773   -1.0399    6.5350 C   0  0  0  0  0  0  0  0  0  0  0  0
    1.3658    0.3958    6.0232 C   0  0  0  0  0  0  0  0  0  0  0  0
    0.9242   -1.1557    7.8682 C   0  0  0  0  0  0  0  0  0  0  0  0
    3.8855   -0.7126    5.5369 N   0  0  0  0  0  0  0  0  0  0  0  0
    3.7258   -1.3589    4.2344 C   0  0  0  0  0  0  0  0  0  0  0  0
    5.0261   -0.0229    5.8552 C   0  0  0  0  0  0  0  0  0  0  0  0
    6.0622   -0.4069    5.3333 O   0  0  0  0  0  0  0  0  0  0  0  0
    7.8218    1.3814    2.9436 H   0  0  0  0  0  0  0  0  0  0  0  0
    6.1920    1.9834    2.6669 H   0  0  0  0  0  0  0  0  0  0  0  0
    6.4499    0.3886    3.3495 H   0  0  0  0  0  0  0  0  0  0  0  0
    7.4046    3.0083    4.6198 H   0  0  0  0  0  0  0  0  0  0  0  0
    7.5445    1.4733    5.3908 H   0  0  0  0  0  0  0  0  0  0  0  0
    5.7237    3.4039    5.9608 H   0  0  0  0  0  0  0  0  0  0  0  0
    4.0962    1.8611    3.9638 H   0  0  0  0  0  0  0  0  0  0  0  0
    4.8246    3.4648    3.7464 H   0  0  0  0  0  0  0  0  0  0  0  0
    3.5750    3.2300    4.9658 H   0  0  0  0  0  0  0  0  0  0  0  0
    3.8206    1.5832    6.4864 H   0  0  0  0  0  0  0  0  0  0  0  0
    3.6720    1.3244    8.3907 H   0  0  0  0  0  0  0  0  0  0  0  0
    5.3121    2.1546   12.2012 H   0  0  0  0  0  0  0  0  0  0  0  0
    6.9926    1.0739   12.9551 H   0  0  0  0  0  0  0  0  0  0  0  0
    6.9538   -0.0483   11.6297 H   0  0  0  0  0  0  0  0  0  0  0  0
    6.0805   -0.3996   14.3901 H   0  0  0  0  0  0  0  0  0  0  0  0
    6.1983   -1.6637   13.1727 H   0  0  0  0  0  0  0  0  0  0  0  0
    3.8102   -0.8713   14.1557 H   0  0  0  0  0  0  0  0  0  0  0  0
    3.9560   -1.3653   12.4746 H   0  0  0  0  0  0  0  0  0  0  0  0
    2.8611    3.3629   14.5866 H   0  0  0  0  0  0  0  0  0  0  0  0
    5.8115    2.6652   14.3353 H   0  0  0  0  0  0  0  0  0  0  0  0
    4.7829    2.5341   15.7407 H   0  0  0  0  0  0  0  0  0  0  0  0
    5.1417    4.1315   15.0812 H   0  0  0  0  0  0  0  0  0  0  0  0
    1.7330    4.7121   13.1953 H   0  0  0  0  0  0  0  0  0  0  0  0
    1.6230    3.3073   12.1209 H   0  0  0  0  0  0  0  0  0  0  0  0
    2.1643    4.8861   11.4928 H   0  0  0  0  0  0  0  0  0  0  0  0
    3.8120    5.2171   10.4010 H   0  0  0  0  0  0  0  0  0  0  0  0
    3.8307    3.8308    8.7287 H   0  0  0  0  0  0  0  0  0  0  0  0
    2.4272    2.0256    9.5063 H   0  0  0  0  0  0  0  0  0  0  0  0
    3.0200    2.0625   11.1092 H   0  0  0  0  0  0  0  0  0  0  0  0
    3.1681   -0.3906    9.2637 H   0  0  0  0  0  0  0  0  0  0  0  0
    3.9559   -0.4950   10.7287 H   0  0  0  0  0  0  0  0  0  0  0  0
    5.4693   -0.9384    8.1633 H   0  0  0  0  0  0  0  0  0  0  0  0
    6.2683   -0.7402    9.7029 H   0  0  0  0  0  0  0  0  0  0  0  0
    6.9958    1.1217    7.2418 H   0  0  0  0  0  0  0  0  0  0  0  0
    7.6325    1.1365    8.8015 H   0  0  0  0  0  0  0  0  0  0  0  0
    5.8791    3.5911    7.6056 H   0  0  0  0  0  0  0  0  0  0  0  0
    6.8988    3.6303    8.9165 H   0  0  0  0  0  0  0  0  0  0  0  0
    5.4686    6.3692    9.7805 H   0  0  0  0  0  0  0  0  0  0  0  0
    7.6638    3.6952   11.3740 H   0  0  0  0  0  0  0  0  0  0  0  0
    9.4790    6.1566   11.6223 H   0  0  0  0  0  0  0  0  0  0  0  0
    9.8671    3.4206   12.9279 H   0  0  0  0  0  0  0  0  0  0  0  0
   10.7598    4.8909   13.3348 H   0  0  0  0  0  0  0  0  0  0  0  0
   10.9430    4.1879   11.7351 H   0  0  0  0  0  0  0  0  0  0  0  0
    7.8660    4.7975   13.8160 H   0  0  0  0  0  0  0  0  0  0  0  0
    7.3839    6.2991   12.9778 H   0  0  0  0  0  0  0  0  0  0  0  0
    8.8495    6.2516   13.9465 H   0  0  0  0  0  0  0  0  0  0  0  0
    9.7551    5.9864    9.4992 H   0  0  0  0  0  0  0  0  0  0  0  0
    9.1244    5.1492    8.0668 H   0  0  0  0  0  0  0  0  0  0  0  0
   10.7606    4.8104    8.7694 H   0  0  0  0  0  0  0  0  0  0  0  0
    9.1610    1.5168    7.9142 H   0  0  0  0  0  0  0  0  0  0  0  0
   10.3335    3.5883    7.2817 H   0  0  0  0  0  0  0  0  0  0  0  0
   12.9327    2.0649    7.7142 H   0  0  0  0  0  0  0  0  0  0  0  0
   12.3173    3.1763    8.9480 H   0  0  0  0  0  0  0  0  0  0  0  0
   12.6956    3.7781    7.3371 H   0  0  0  0  0  0  0  0  0  0  0  0
    9.8321    1.6654    5.7673 H   0  0  0  0  0  0  0  0  0  0  0  0
   11.5370    1.2331    5.8946 H   0  0  0  0  0  0  0  0  0  0  0  0
   10.4344    3.9768    5.0209 H   0  0  0  0  0  0  0  0  0  0  0  0
   11.0428    2.7288    3.9313 H   0  0  0  0  0  0  0  0  0  0  0  0
   12.1486    3.5361    5.0530 H   0  0  0  0  0  0  0  0  0  0  0  0
    8.4190   -0.5941    9.2085 H   0  0  0  0  0  0  0  0  0  0  0  0
    8.1608   -2.7999   12.2655 H   0  0  0  0  0  0  0  0  0  0  0  0
    7.8924   -3.5372   10.6922 H   0  0  0  0  0  0  0  0  0  0  0  0
    7.1749   -1.9973   11.0669 H   0  0  0  0  0  0  0  0  0  0  0  0
   10.6704   -2.8631   12.0410 H   0  0  0  0  0  0  0  0  0  0  0  0
   11.4676   -2.2837   10.5911 H   0  0  0  0  0  0  0  0  0  0  0  0
   10.4382   -3.7321   10.5344 H   0  0  0  0  0  0  0  0  0  0  0  0
    9.3215    0.1468   11.1369 H   0  0  0  0  0  0  0  0  0  0  0  0
   10.2296   -3.6956    8.2563 H   0  0  0  0  0  0  0  0  0  0  0  0
    8.8686   -4.3508    7.3609 H   0  0  0  0  0  0  0  0  0  0  0  0
    8.8270   -4.4166    9.1043 H   0  0  0  0  0  0  0  0  0  0  0  0
    6.9182   -4.0710    7.0426 H   0  0  0  0  0  0  0  0  0  0  0  0
    6.3506   -4.2863    4.8564 H   0  0  0  0  0  0  0  0  0  0  0  0
    6.1326   -2.6062    4.5774 H   0  0  0  0  0  0  0  0  0  0  0  0
    7.9123   -3.2861    3.3204 H   0  0  0  0  0  0  0  0  0  0  0  0
    9.7419   -4.5864    3.7704 H   0  0  0  0  0  0  0  0  0  0  0  0
    8.5028   -5.3753    4.7526 H   0  0  0  0  0  0  0  0  0  0  0  0
    9.7256   -4.3161    5.4949 H   0  0  0  0  0  0  0  0  0  0  0  0
    9.7571   -1.8983    3.7858 H   0  0  0  0  0  0  0  0  0  0  0  0
    9.4994   -1.9163    5.5149 H   0  0  0  0  0  0  0  0  0  0  0  0
    8.3547   -1.0680    4.4461 H   0  0  0  0  0  0  0  0  0  0  0  0
    4.9215   -4.2199    7.3004 H   0  0  0  0  0  0  0  0  0  0  0  0
    3.5335   -0.7713    7.5165 H   0  0  0  0  0  0  0  0  0  0  0  0
    1.2382   -1.7511    5.8254 H   0  0  0  0  0  0  0  0  0  0  0  0
    1.8318    0.6225    5.0608 H   0  0  0  0  0  0  0  0  0  0  0  0
    1.6984    1.1537    6.7428 H   0  0  0  0  0  0  0  0  0  0  0  0
    0.2885    0.5397    5.8853 H   0  0  0  0  0  0  0  0  0  0  0  0
    1.2646   -0.4030    8.5860 H   0  0  0  0  0  0  0  0  0  0  0  0
    1.0252   -2.1428    8.3165 H   0  0  0  0  0  0  0  0  0  0  0  0
   -0.1438   -0.9546    7.7201 H   0  0  0  0  0  0  0  0  0  0  0  0
    3.3842   -2.3919    4.3422 H   0  0  0  0  0  0  0  0  0  0  0  0
    4.6417   -1.3315    3.6424 H   0  0  0  0  0  0  0  0  0  0  0  0
    2.9632   -0.8029    3.6805 H   0  0  0  0  0  0  0  0  0  0  0  0
  1  2  1  0  0  0  0
  1 73  1  0  0  0  0
  1 74  1  0  0  0  0
  1 75  1  0  0  0  0
  2 76  1  0  0  0  0
  2 77  1  0  0  0  0
  3  4  1  0  0  0  0
  3  2  1  0  0  0  0
  3 78  1  6  0  0  0
  4 79  1  0  0  0  0
  4 80  1  0  0  0  0
  4 81  1  0  0  0  0
  5  6  1  0  0  0  0
  5 71  1  0  0  0  0
  5  3  1  0  0  0  0
  5 82  1  6  0  0  0
  6  7  1  0  0  0  0
  6 83  1  0  0  0  0
  7  8  2  0  0  0  0
  7  9  1  0  0  0  0
  9 10  1  0  0  0  0
  9 13  1  0  0  0  0
  9 84  1  1  0  0  0
 10 11  1  0  0  0  0
 10 85  1  0  0  0  0
 10 86  1  0  0  0  0
 11 12  1  0  0  0  0
 11 87  1  0  0  0  0
 11 88  1  0  0  0  0
 12 13  1  0  0  0  0
 12 89  1  0  0  0  0
 12 90  1  0  0  0  0
 13 14  1  0  0  0  0
 14 15  2  0  0  0  0
 14 16  1  0  0  0  0
 16 17  1  0  0  0  0
 16 18  1  0  0  0  0
 16 91  1  1  0  0  0
 17 92  1  0  0  0  0
 17 93  1  0  0  0  0
 17 94  1  0  0  0  0
 18 19  1  0  0  0  0
 18 20  1  0  0  0  0
 19 95  1  0  0  0  0
 19 96  1  0  0  0  0
 19 97  1  0  0  0  0
 20 21  2  0  0  0  0
 20 22  1  0  0  0  0
 22 29  1  0  0  0  0
 22 23  1  0  0  0  0
 22 98  1  6  0  0  0
 23 24  1  0  0  0  0
 23 28  1  0  0  0  0
 23 99  1  0  0  0  0
 24 25  1  0  0  0  0
 24100  1  0  0  0  0
 24101  1  0  0  0  0
 25 26  1  0  0  0  0
 25102  1  0  0  0  0
 25103  1  0  0  0  0
 26 27  1  0  0  0  0
 26104  1  0  0  0  0
 26105  1  0  0  0  0
 27 28  1  0  0  0  0
 27106  1  0  0  0  0
 27107  1  0  0  0  0
 28108  1  0  0  0  0
 28109  1  0  0  0  0
 29 30  1  0  0  0  0
 29110  1  0  0  0  0
 30 31  2  0  0  0  0
 30 32  1  0  0  0  0
 32 36  1  0  0  0  0
 32 33  1  0  0  0  0
 32111  1  1  0  0  0
 33 34  1  0  0  0  0
 33 35  1  0  0  0  0
 33112  1  0  0  0  0
 34113  1  0  0  0  0
 34114  1  0  0  0  0
 34115  1  0  0  0  0
 35116  1  0  0  0  0
 35117  1  0  0  0  0
 35118  1  0  0  0  0
 36 37  1  0  0  0  0
 36 38  1  0  0  0  0
 37119  1  0  0  0  0
 37120  1  0  0  0  0
 37121  1  0  0  0  0
 38 39  2  0  0  0  0
 38 40  1  0  0  0  0
 40 41  1  0  0  0  0
 40 45  1  0  0  0  0
 40122  1  6  0  0  0
 41 42  1  0  0  0  0
 41 43  1  0  0  0  0
 41123  1  6  0  0  0
 42124  1  0  0  0  0
 42125  1  0  0  0  0
 42126  1  0  0  0  0
 43 44  1  0  0  0  0
 43127  1  0  0  0  0
 43128  1  0  0  0  0
 44129  1  0  0  0  0
 44130  1  0  0  0  0
 44131  1  0  0  0  0
 45 46  1  0  0  0  0
 46 47  2  0  0  0  0
 46 48  1  0  0  0  0
 48 53  1  0  0  0  0
 48 49  1  0  0  0  0
 48132  1  1  0  0  0
 49 50  1  0  0  0  0
 49 51  1  0  0  0  0
 49 52  1  0  0  0  0
 50133  1  0  0  0  0
 50134  1  0  0  0  0
 50135  1  0  0  0  0
 51136  1  0  0  0  0
 51137  1  0  0  0  0
 51138  1  0  0  0  0
 52139  1  0  0  0  0
 53 54  1  0  0  0  0
 53 55  1  0  0  0  0
 54140  1  0  0  0  0
 54141  1  0  0  0  0
 54142  1  0  0  0  0
 55 56  2  0  0  0  0
 55 57  1  0  0  0  0
 57 62  1  0  0  0  0
 57 58  1  0  0  0  0
 57143  1  1  0  0  0
 58 59  1  0  0  0  0
 58144  1  0  0  0  0
 58145  1  0  0  0  0
 59 60  1  0  0  0  0
 59 61  1  0  0  0  0
 59146  1  0  0  0  0
 60147  1  0  0  0  0
 60148  1  0  0  0  0
 60149  1  0  0  0  0
 61150  1  0  0  0  0
 61151  1  0  0  0  0
 61152  1  0  0  0  0
 62 63  1  0  0  0  0
 62153  1  0  0  0  0
 63 64  2  0  0  0  0
 63 65  1  0  0  0  0
 65 69  1  0  0  0  0
 65 66  1  0  0  0  0
 65154  1  1  0  0  0
 66 67  1  0  0  0  0
 66 68  1  0  0  0  0
 66155  1  0  0  0  0
 67156  1  0  0  0  0
 67157  1  0  0  0  0
 67158  1  0  0  0  0
 68159  1  0  0  0  0
 68160  1  0  0  0  0
 68161  1  0  0  0  0
 69 70  1  0  0  0  0
 69 71  1  0  0  0  0
 70162  1  0  0  0  0
 70163  1  0  0  0  0
 70164  1  0  0  0  0
 71 72  2  0  0  0  0
M  END
>  <Energy>
1280.8

$$$$