14
 OpenBabel03292022243D

100104  0  0  1  0  0  0  0  0999 V2000
   -0.2753    5.3583   -0.9090 C   0  0  0  0  0  0  0  0  0  0  0  0
    0.7252    4.4149   -0.5512 O   0  0  0  0  0  0  0  0  0  0  0  0
    2.0316    4.7458   -0.7791 C   0  0  0  0  0  0  0  0  0  0  0  0
    2.9558    4.0003   -0.0466 C   0  0  0  0  0  0  0  0  0  0  0  0
    4.3312    4.1900   -0.2200 C   0  0  0  0  0  0  0  0  0  0  0  0
    4.8196    5.1199   -1.1536 C   0  0  0  0  0  0  0  0  0  0  0  0
    6.3355    5.3297   -1.2903 C   0  0  0  0  0  0  0  0  0  0  0  0
    6.8065    5.7239   -2.7110 C   0  0  0  0  0  0  0  0  0  0  0  0
    6.4841    5.1312   -3.7353 O   0  0  0  0  0  0  0  0  0  0  0  0
    7.6439    6.7953   -2.7005 O   0  0  0  0  0  0  0  0  0  0  0  0
    8.1209    7.3803   -3.9466 C   0  0  1  0  0  0  0  0  0  0  0  0
    6.9928    8.1997   -4.5896 C   0  0  0  0  0  0  0  0  0  0  0  0
    7.4266    9.4702   -5.3305 C   0  0  0  0  0  0  0  0  0  0  0  0
    8.4239   10.3596   -4.5271 C   0  0  1  0  0  0  0  0  0  0  0  0
    7.8152   10.9303   -3.2957 N   0  0  0  0  0  0  0  0  0  0  0  0
    6.6636   11.7942   -3.6306 C   0  0  0  0  0  0  0  0  0  0  0  0
    8.6432   11.6448   -2.2842 C   0  0  1  0  0  0  0  0  0  0  0  0
    9.5336   10.7362   -1.4313 C   0  0  0  0  0  0  0  0  0  0  0  0
    9.9918   11.4624   -0.1728 C   0  0  0  0  0  0  0  0  0  0  0  0
   10.7837   12.7267   -0.4851 C   0  0  1  0  0  0  0  0  0  0  0  0
   12.0433   12.3657   -1.0713 O   0  0  0  0  0  0  0  0  0  0  0  0
   12.9521   11.8529   -0.2035 C   0  0  0  0  0  0  0  0  0  0  0  0
   12.8340   11.7390    1.0107 O   0  0  0  0  0  0  0  0  0  0  0  0
   14.1327   11.4005   -0.8796 C   0  0  0  0  0  0  0  0  0  0  0  0
   15.1269   11.0888   -1.4669 C   0  0  0  0  0  0  0  0  0  0  0  0
   16.3478   10.8643   -2.1758 C   0  0  0  0  0  0  0  0  0  0  0  0
   17.5238   11.3724   -1.6373 C   0  0  0  0  0  0  0  0  0  0  0  0
   18.7147   11.2775   -2.3560 C   0  0  0  0  0  0  0  0  0  0  0  0
   19.9095   11.7756   -1.8963 O   0  0  0  0  0  0  0  0  0  0  0  0
   20.0101   11.9830   -0.4917 C   0  0  0  0  0  0  0  0  0  0  0  0
   18.7130   10.6791   -3.6357 C   0  0  0  0  0  0  0  0  0  0  0  0
   19.9159   10.7623   -4.3042 O   0  0  0  0  0  0  0  0  0  0  0  0
   20.2668    9.6781   -5.1511 C   0  0  0  0  0  0  0  0  0  0  0  0
   17.5230   10.1365   -4.1688 C   0  0  0  0  0  0  0  0  0  0  0  0
   17.5590    9.5964   -5.4253 O   0  0  0  0  0  0  0  0  0  0  0  0
   16.3632    9.0461   -5.9627 C   0  0  0  0  0  0  0  0  0  0  0  0
   16.3450   10.2289   -3.4172 C   0  0  0  0  0  0  0  0  0  0  0  0
   10.0170   13.6280   -1.4631 C   0  0  0  0  0  0  0  0  0  0  0  0
    9.4504   12.8945   -2.7023 C   0  0  0  0  0  0  0  0  0  0  0  0
    9.6506    9.4424   -4.3685 C   0  0  0  0  0  0  0  0  0  0  0  0
    9.3709    8.1795   -3.5569 C   0  0  0  0  0  0  0  0  0  0  0  0
    6.8625    6.2264   -0.1631 C   0  0  0  0  0  0  0  0  0  0  0  0
    7.7285    5.7097    0.8145 C   0  0  0  0  0  0  0  0  0  0  0  0
    8.1882    6.5209    1.8559 C   0  0  0  0  0  0  0  0  0  0  0  0
    7.8047    7.8586    1.9304 C   0  0  0  0  0  0  0  0  0  0  0  0
    8.2809    8.5583    3.0071 O   0  0  0  0  0  0  0  0  0  0  0  0
    8.5968    9.9141    2.7176 C   0  0  0  0  0  0  0  0  0  0  0  0
    6.9397    8.3824    0.9712 C   0  0  0  0  0  0  0  0  0  0  0  0
    6.4704    7.5715   -0.0650 C   0  0  0  0  0  0  0  0  0  0  0  0
    3.8820    5.8771   -1.8729 C   0  0  0  0  0  0  0  0  0  0  0  0
    2.5011    5.6918   -1.6873 C   0  0  0  0  0  0  0  0  0  0  0  0
   -1.2431    4.8490   -0.8490 H   0  0  0  0  0  0  0  0  0  0  0  0
   -0.1769    5.7272   -1.9332 H   0  0  0  0  0  0  0  0  0  0  0  0
   -0.2872    6.1856   -0.1925 H   0  0  0  0  0  0  0  0  0  0  0  0
    2.6001    3.2667    0.6736 H   0  0  0  0  0  0  0  0  0  0  0  0
    5.0172    3.6043    0.3887 H   0  0  0  0  0  0  0  0  0  0  0  0
    6.7974    4.3393   -1.1512 H   0  0  0  0  0  0  0  0  0  0  0  0
    8.4283    6.5714   -4.6223 H   0  0  0  0  0  0  0  0  0  0  0  0
    6.2317    8.4520   -3.8425 H   0  0  0  0  0  0  0  0  0  0  0  0
    6.4786    7.5494   -5.3120 H   0  0  0  0  0  0  0  0  0  0  0  0
    6.5369   10.0271   -5.6415 H   0  0  0  0  0  0  0  0  0  0  0  0
    7.9001    9.1762   -6.2780 H   0  0  0  0  0  0  0  0  0  0  0  0
    8.7234   11.1930   -5.1773 H   0  0  0  0  0  0  0  0  0  0  0  0
    5.8719   11.2491   -4.1489 H   0  0  0  0  0  0  0  0  0  0  0  0
    6.9584   12.6517   -4.2457 H   0  0  0  0  0  0  0  0  0  0  0  0
    6.1790   12.1775   -2.7243 H   0  0  0  0  0  0  0  0  0  0  0  0
    7.9086   12.0151   -1.5529 H   0  0  0  0  0  0  0  0  0  0  0  0
   10.4233   10.4128   -1.9770 H   0  0  0  0  0  0  0  0  0  0  0  0
    8.9753    9.8523   -1.1130 H   0  0  0  0  0  0  0  0  0  0  0  0
   10.6017   10.7595    0.4037 H   0  0  0  0  0  0  0  0  0  0  0  0
    9.1170   11.7244    0.4318 H   0  0  0  0  0  0  0  0  0  0  0  0
   10.9661   13.2926    0.4385 H   0  0  0  0  0  0  0  0  0  0  0  0
   17.4800   11.8787   -0.6784 H   0  0  0  0  0  0  0  0  0  0  0  0
   21.0552   12.2043   -0.2576 H   0  0  0  0  0  0  0  0  0  0  0  0
   19.7257   11.0835    0.0660 H   0  0  0  0  0  0  0  0  0  0  0  0
   19.4121   12.8449   -0.1778 H   0  0  0  0  0  0  0  0  0  0  0  0
   21.3462    9.7361   -5.3246 H   0  0  0  0  0  0  0  0  0  0  0  0
   19.7892    9.7712   -6.1303 H   0  0  0  0  0  0  0  0  0  0  0  0
   20.0554    8.7100   -4.6862 H   0  0  0  0  0  0  0  0  0  0  0  0
   16.5882    8.6771   -6.9679 H   0  0  0  0  0  0  0  0  0  0  0  0
   15.5826    9.8081   -6.0585 H   0  0  0  0  0  0  0  0  0  0  0  0
   16.0178    8.1958   -5.3653 H   0  0  0  0  0  0  0  0  0  0  0  0
   15.4002    9.8481   -3.7895 H   0  0  0  0  0  0  0  0  0  0  0  0
   10.6665   14.4464   -1.7958 H   0  0  0  0  0  0  0  0  0  0  0  0
    9.1789   14.0845   -0.9192 H   0  0  0  0  0  0  0  0  0  0  0  0
   10.2714   12.6214   -3.3743 H   0  0  0  0  0  0  0  0  0  0  0  0
    8.8136   13.6058   -3.2412 H   0  0  0  0  0  0  0  0  0  0  0  0
   10.5036    9.9930   -3.9651 H   0  0  0  0  0  0  0  0  0  0  0  0
    9.9842    9.1288   -5.3687 H   0  0  0  0  0  0  0  0  0  0  0  0
    9.3096    8.4202   -2.4970 H   0  0  0  0  0  0  0  0  0  0  0  0
   10.2452    7.5189   -3.6237 H   0  0  0  0  0  0  0  0  0  0  0  0
    8.0476    4.6703    0.7846 H   0  0  0  0  0  0  0  0  0  0  0  0
    8.8549    6.1113    2.6106 H   0  0  0  0  0  0  0  0  0  0  0  0
    9.1685   10.3269    3.5533 H   0  0  0  0  0  0  0  0  0  0  0  0
    7.6960   10.5231    2.5928 H   0  0  0  0  0  0  0  0  0  0  0  0
    9.2285    9.9633    1.8324 H   0  0  0  0  0  0  0  0  0  0  0  0
    6.5953    9.4097    1.0156 H   0  0  0  0  0  0  0  0  0  0  0  0
    5.7923    8.0024   -0.7983 H   0  0  0  0  0  0  0  0  0  0  0  0
    4.2087    6.6213   -2.5966 H   0  0  0  0  0  0  0  0  0  0  0  0
    1.8267    6.2896   -2.2898 H   0  0  0  0  0  0  0  0  0  0  0  0
  1  2  1  0  0  0  0
  1 52  1  0  0  0  0
  1 53  1  0  0  0  0
  1 54  1  0  0  0  0
  2  3  1  0  0  0  0
  3  4  1  0  0  0  0
  3 51  2  0  0  0  0
  4  5  2  0  0  0  0
  4 55  1  0  0  0  0
  5  6  1  0  0  0  0
  5 56  1  0  0  0  0
  6  7  1  0  0  0  0
  6 50  2  0  0  0  0
  7  8  1  0  0  0  0
  7 42  1  0  0  0  0
  7 57  1  0  0  0  0
  8  9  2  0  0  0  0
  8 10  1  0  0  0  0
 11 12  1  0  0  0  0
 11 41  1  0  0  0  0
 11 10  1  0  0  0  0
 11 58  1  6  0  0  0
 12 13  1  0  0  0  0
 12 59  1  0  0  0  0
 12 60  1  0  0  0  0
 13 14  1  0  0  0  0
 13 61  1  0  0  0  0
 13 62  1  0  0  0  0
 14 15  1  0  0  0  0
 14 40  1  0  0  0  0
 14 63  1  6  0  0  0
 15 16  1  0  0  0  0
 16 64  1  0  0  0  0
 16 65  1  0  0  0  0
 16 66  1  0  0  0  0
 17 18  1  0  0  0  0
 17 39  1  0  0  0  0
 17 15  1  0  0  0  0
 17 67  1  1  0  0  0
 18 19  1  0  0  0  0
 18 68  1  0  0  0  0
 18 69  1  0  0  0  0
 19 20  1  0  0  0  0
 19 70  1  0  0  0  0
 19 71  1  0  0  0  0
 20 21  1  0  0  0  0
 20 38  1  0  0  0  0
 20 72  1  1  0  0  0
 21 22  1  0  0  0  0
 22 23  2  0  0  0  0
 22 24  1  0  0  0  0
 24 25  3  0  0  0  0
 25 26  1  0  0  0  0
 26 27  1  0  0  0  0
 26 37  2  0  0  0  0
 27 28  2  0  0  0  0
 27 73  1  0  0  0  0
 28 29  1  0  0  0  0
 28 31  1  0  0  0  0
 29 30  1  0  0  0  0
 30 74  1  0  0  0  0
 30 75  1  0  0  0  0
 30 76  1  0  0  0  0
 31 32  1  0  0  0  0
 31 34  2  0  0  0  0
 32 33  1  0  0  0  0
 33 77  1  0  0  0  0
 33 78  1  0  0  0  0
 33 79  1  0  0  0  0
 34 35  1  0  0  0  0
 34 37  1  0  0  0  0
 35 36  1  0  0  0  0
 36 80  1  0  0  0  0
 36 81  1  0  0  0  0
 36 82  1  0  0  0  0
 37 83  1  0  0  0  0
 38 39  1  0  0  0  0
 38 84  1  0  0  0  0
 38 85  1  0  0  0  0
 39 86  1  0  0  0  0
 39 87  1  0  0  0  0
 40 41  1  0  0  0  0
 40 88  1  0  0  0  0
 40 89  1  0  0  0  0
 41 90  1  0  0  0  0
 41 91  1  0  0  0  0
 42 43  1  0  0  0  0
 42 49  2  0  0  0  0
 43 44  2  0  0  0  0
 43 92  1  0  0  0  0
 44 45  1  0  0  0  0
 44 93  1  0  0  0  0
 45 46  1  0  0  0  0
 45 48  2  0  0  0  0
 46 47  1  0  0  0  0
 47 94  1  0  0  0  0
 47 95  1  0  0  0  0
 47 96  1  0  0  0  0
 48 49  1  0  0  0  0
 48 97  1  0  0  0  0
 49 98  1  0  0  0  0
 50 51  1  0  0  0  0
 50 99  1  0  0  0  0
 51100  1  0  0  0  0
M  END
>  <Energy>
173.028

$$$$