57384780
  -OEChem-03242010103D

 65 68  0     1  0  0  0  0  0999 V2000
   -4.8248    4.0650   -0.3978 O   0  0  0  0  0  0  0  0  0  0  0  0
   -3.5329    0.9316    0.8648 O   0  0  0  0  0  0  0  0  0  0  0  0
   -0.8407   -3.7734    1.9013 O   0  0  0  0  0  0  0  0  0  0  0  0
   -1.4528    2.5225   -0.3664 N   0  0  0  0  0  0  0  0  0  0  0  0
    1.2623    1.7928    0.1391 N   0  0  0  0  0  0  0  0  0  0  0  0
   -0.5151    2.3336   -1.4803 C   0  0  0  0  0  0  0  0  0  0  0  0
   -0.7420    3.0644    0.7979 C   0  0  0  0  0  0  0  0  0  0  0  0
    0.6018    1.3596   -1.0987 C   0  0  0  0  0  0  0  0  0  0  0  0
    0.3685    2.1154    1.2556 C   0  0  0  0  0  0  0  0  0  0  0  0
   -2.5448    3.4117   -0.7605 C   0  0  0  0  0  0  0  0  0  0  0  0
    2.5519    1.3155    0.3980 C   0  0  0  0  0  0  0  0  0  0  0  0
   -3.8035    3.1847    0.0802 C   0  0  2  0  0  0  0  0  0  0  0  0
    3.6753    2.0079   -0.0534 C   0  0  0  0  0  0  0  0  0  0  0  0
   -4.3260    1.7514    0.0119 C   0  0  0  0  0  0  0  0  0  0  0  0
    2.7055    0.1295    1.1160 C   0  0  0  0  0  0  0  0  0  0  0  0
    4.9525    1.5146    0.2132 C   0  0  0  0  0  0  0  0  0  0  0  0
    3.5148    3.2807   -0.8241 C   0  0  0  0  0  0  0  0  0  0  0  0
    3.9827   -0.3640    1.3825 C   0  0  0  0  0  0  0  0  0  0  0  0
    5.1062    0.3285    0.9312 C   0  0  0  0  0  0  0  0  0  0  0  0
    6.1722    2.2364   -0.2583 C   0  0  0  0  0  0  0  0  0  0  0  0
   -3.4070   -0.3848    0.5095 C   0  0  0  0  0  0  0  0  0  0  0  0
   -2.2496   -1.0893    0.8402 C   0  0  0  0  0  0  0  0  0  0  0  0
   -4.4371   -1.0214   -0.1828 C   0  0  0  0  0  0  0  0  0  0  0  0
   -2.1220   -2.4303    0.4784 C   0  0  0  0  0  0  0  0  0  0  0  0
   -4.3095   -2.3625   -0.5447 C   0  0  0  0  0  0  0  0  0  0  0  0
   -3.1520   -3.0671   -0.2141 C   0  0  0  0  0  0  0  0  0  0  0  0
   -0.9151   -3.1649    0.8235 C   0  0  0  0  0  0  0  0  0  0  0  0
    0.2724   -3.2246   -0.0813 C   0  0  0  0  0  0  0  0  0  0  0  0
    1.4046   -3.9446    0.2998 C   0  0  0  0  0  0  0  0  0  0  0  0
    0.2479   -2.5614   -1.3081 C   0  0  0  0  0  0  0  0  0  0  0  0
    2.5126   -4.0013   -0.5459 C   0  0  0  0  0  0  0  0  0  0  0  0
    1.3557   -2.6182   -2.1539 C   0  0  0  0  0  0  0  0  0  0  0  0
    2.4881   -3.3381   -1.7727 C   0  0  0  0  0  0  0  0  0  0  0  0
   -0.3064    4.0456    0.5646 H   0  0  0  0  0  0  0  0  0  0  0  0
   -1.4269    3.2058    1.6413 H   0  0  0  0  0  0  0  0  0  0  0  0
   -1.0397    1.9188   -2.3497 H   0  0  0  0  0  0  0  0  0  0  0  0
   -0.0791    3.2940   -1.7867 H   0  0  0  0  0  0  0  0  0  0  0  0
    0.9325    2.6026    2.0607 H   0  0  0  0  0  0  0  0  0  0  0  0
   -0.0632    1.1971    1.6679 H   0  0  0  0  0  0  0  0  0  0  0  0
    0.1886    0.3553   -0.9544 H   0  0  0  0  0  0  0  0  0  0  0  0
    1.3209    1.3059   -1.9251 H   0  0  0  0  0  0  0  0  0  0  0  0
   -2.2491    4.4694   -0.7324 H   0  0  0  0  0  0  0  0  0  0  0  0
   -2.8219    3.2290   -1.8088 H   0  0  0  0  0  0  0  0  0  0  0  0
   -3.6145    3.4615    1.1230 H   0  0  0  0  0  0  0  0  0  0  0  0
   -4.3080    1.4209   -1.0355 H   0  0  0  0  0  0  0  0  0  0  0  0
   -5.3655    1.7194    0.3609 H   0  0  0  0  0  0  0  0  0  0  0  0
    1.8416   -0.4279    1.4691 H   0  0  0  0  0  0  0  0  0  0  0  0
    3.6334    3.0873   -1.8952 H   0  0  0  0  0  0  0  0  0  0  0  0
    2.5391    3.7522   -0.6706 H   0  0  0  0  0  0  0  0  0  0  0  0
    4.2480    4.0325   -0.5142 H   0  0  0  0  0  0  0  0  0  0  0  0
    4.1018   -1.2890    1.9392 H   0  0  0  0  0  0  0  0  0  0  0  0
   -5.0318    3.8121   -1.3138 H   0  0  0  0  0  0  0  0  0  0  0  0
    6.0938   -0.0698    1.1480 H   0  0  0  0  0  0  0  0  0  0  0  0
    6.1122    2.4493   -1.3308 H   0  0  0  0  0  0  0  0  0  0  0  0
    6.3016    3.1723    0.2947 H   0  0  0  0  0  0  0  0  0  0  0  0
    7.0780    1.6385   -0.1070 H   0  0  0  0  0  0  0  0  0  0  0  0
   -1.4522   -0.5937    1.3856 H   0  0  0  0  0  0  0  0  0  0  0  0
   -5.3664   -0.5189   -0.4338 H   0  0  0  0  0  0  0  0  0  0  0  0
   -5.1140   -2.8605   -1.0780 H   0  0  0  0  0  0  0  0  0  0  0  0
   -3.0641   -4.1122   -0.4996 H   0  0  0  0  0  0  0  0  0  0  0  0
    1.4504   -4.4697    1.2500 H   0  0  0  0  0  0  0  0  0  0  0  0
   -0.6150   -1.9931   -1.6417 H   0  0  0  0  0  0  0  0  0  0  0  0
    3.3947   -4.5609   -0.2489 H   0  0  0  0  0  0  0  0  0  0  0  0
    1.3372   -2.1010   -3.1088 H   0  0  0  0  0  0  0  0  0  0  0  0
    3.3510   -3.3813   -2.4307 H   0  0  0  0  0  0  0  0  0  0  0  0
  1 12  1  0  0  0  0
  1 52  1  0  0  0  0
  2 14  1  0  0  0  0
  2 21  1  0  0  0  0
  3 27  2  0  0  0  0
  4  6  1  0  0  0  0
  4  7  1  0  0  0  0
  4 10  1  0  0  0  0
  5  8  1  0  0  0  0
  5  9  1  0  0  0  0
  5 11  1  0  0  0  0
  6  8  1  0  0  0  0
  6 36  1  0  0  0  0
  6 37  1  0  0  0  0
  7  9  1  0  0  0  0
  7 34  1  0  0  0  0
  7 35  1  0  0  0  0
  8 40  1  0  0  0  0
  8 41  1  0  0  0  0
  9 38  1  0  0  0  0
  9 39  1  0  0  0  0
 10 12  1  0  0  0  0
 10 42  1  0  0  0  0
 10 43  1  0  0  0  0
 11 13  1  0  0  0  0
 11 15  2  0  0  0  0
 12 14  1  0  0  0  0
 12 44  1  0  0  0  0
 13 16  2  0  0  0  0
 13 17  1  0  0  0  0
 14 45  1  0  0  0  0
 14 46  1  0  0  0  0
 15 18  1  0  0  0  0
 15 47  1  0  0  0  0
 16 19  1  0  0  0  0
 16 20  1  0  0  0  0
 17 48  1  0  0  0  0
 17 49  1  0  0  0  0
 17 50  1  0  0  0  0
 18 19  2  0  0  0  0
 18 51  1  0  0  0  0
 19 53  1  0  0  0  0
 20 54  1  0  0  0  0
 20 55  1  0  0  0  0
 20 56  1  0  0  0  0
 21 22  1  0  0  0  0
 21 23  2  0  0  0  0
 22 24  2  0  0  0  0
 22 57  1  0  0  0  0
 23 25  1  0  0  0  0
 23 58  1  0  0  0  0
 24 26  1  0  0  0  0
 24 27  1  0  0  0  0
 25 26  2  0  0  0  0
 25 59  1  0  0  0  0
 26 60  1  0  0  0  0
 27 28  1  0  0  0  0
 28 29  2  0  0  0  0
 28 30  1  0  0  0  0
 29 31  1  0  0  0  0
 29 61  1  0  0  0  0
 30 32  2  0  0  0  0
 30 62  1  0  0  0  0
 31 33  2  0  0  0  0
 31 63  1  0  0  0  0
 32 33  1  0  0  0  0
 32 64  1  0  0  0  0
 33 65  1  0  0  0  0
M  END
> <PUBCHEM_COMPOUND_CID>
57384780

> <PUBCHEM_CONFORMER_RMSD>
1.4

> <PUBCHEM_CONFORMER_DIVERSEORDER>
1
15
104
47
13
67
113
83
99
33
108
31
49
37
87
29
48
106
46
58
84
70
23
110
32
77
50
78
68
107
59
80
90
18
35
82
66
19
53
26
55
96
81
109
74
2
94
24
71
65
92
22
25
112
40
98
64
100
75
45
103
91
102
44
88
111
38
36
72
95
89
52
86
17
60
21
57
56
73
3
85
43
42
11
62
101
76
41
12
27
61
97
105
93
28
30
51
4
69
6
20
63
34
54
10
79
8
7
5
9
14
39
16

> <PUBCHEM_MMFF94_PARTIAL_CHARGES>
46
1 -0.68
10 0.27
11 0.1
12 0.28
13 -0.14
14 0.28
15 -0.15
16 -0.14
17 0.14
18 -0.15
19 -0.15
2 -0.36
20 0.14
21 0.08
22 -0.15
23 -0.15
24 0.09
25 -0.15
26 -0.15
27 0.4
28 0.09
29 -0.15
3 -0.57
30 -0.15
31 -0.15
32 -0.15
33 -0.15
4 -0.81
47 0.15
5 -0.84
51 0.15
52 0.4
53 0.15
57 0.15
58 0.15
59 0.15
6 0.27
60 0.15
61 0.15
62 0.15
63 0.15
64 0.15
65 0.15
7 0.27
8 0.37
9 0.37

> <PUBCHEM_EFFECTIVE_ROTOR_COUNT>
9.2

> <PUBCHEM_PHARMACOPHORE_FEATURES>
10
1 1 acceptor
1 1 donor
1 2 acceptor
1 3 acceptor
1 4 cation
1 5 cation
6 11 13 15 16 18 19 rings
6 21 22 23 24 25 26 rings
6 28 29 30 31 32 33 rings
6 4 5 6 7 8 9 rings

> <PUBCHEM_HEAVY_ATOM_COUNT>
33

> <PUBCHEM_ATOM_DEF_STEREO_COUNT>
0

> <PUBCHEM_ATOM_UDEF_STEREO_COUNT>
1

> <PUBCHEM_BOND_DEF_STEREO_COUNT>
0

> <PUBCHEM_BOND_UDEF_STEREO_COUNT>
0

> <PUBCHEM_ISOTOPIC_ATOM_COUNT>
0

> <PUBCHEM_COMPONENT_COUNT>
1

> <PUBCHEM_CACTVS_TAUTO_COUNT>
1

> <PUBCHEM_CONFORMER_ID>
036B9F4C00000001

> <PUBCHEM_MMFF94_ENERGY>
119.203

> <PUBCHEM_FEATURE_SELFOVERLAP>
50.75

> <PUBCHEM_SHAPE_FINGERPRINT>
1100329 8 17978792303096529551
11014199 57 16971106853361683730
11513181 2 18272368646369151878
12156800 1 18191612867841723542
12422481 6 18338784616807651522
12522641 33 18263917745197634245
12597179 24 18269266881164644244
12788726 201 18337945817714652968
14251757 5 18191868044406879344
14279260 333 17896591990156355648
14647877 51 18269558226334994606
14725015 67 18196647617342672115
14790565 3 18338237197413767500
14932702 115 17762384324563428798
15274700 242 17679270076821669074
15927050 60 18340484453252053197
16067689 134 16182140649242233305
20642791 35 17979074886480549859
20764821 26 18121215385579217990
21133410 38 18201163161970054611
22113638 7 17764303242678516583
23559900 14 18126003763292828628
238918 7 18272649073853538766
3027735 51 18341889719016266777
3298306 158 18343580716091296204
4112364 45 16909784405769203201
4403749 210 18268975635770909568
5047190 48 18408325518670659988
508706 21 18340214062847650190
5171179 24 18271254802831089382
5265222 85 18338807835090026100

> <PUBCHEM_SHAPE_MULTIPOLES>
651.55
10.11
6.9
1.44
5.01
2.13
0.25
-6.48
-0.77
-2.66
1.27
0.59
0.78
0.86

> <PUBCHEM_SHAPE_SELFOVERLAP>
1395.44

> <PUBCHEM_SHAPE_VOLUME>
361.5

> <PUBCHEM_COORDINATE_TYPE>
2
5
10

$$$$