118708514
  -OEChem-03242010103D

 47 49  0     0  0  0  0  0  0999 V2000
    1.3562    2.2609    1.3858 F   0  0  0  0  0  0  0  0  0  0  0  0
   -3.0761   -2.0715    0.5200 O   0  0  0  0  0  0  0  0  0  0  0  0
   -5.7058   -1.3286    0.8702 O   0  0  0  0  0  0  0  0  0  0  0  0
   -6.5562    1.1716    0.0398 O   0  0  0  0  0  0  0  0  0  0  0  0
   -0.9330   -1.3251   -1.3632 O   0  0  0  0  0  0  0  0  0  0  0  0
   -0.2350    0.4920   -0.0442 N   0  0  0  0  0  0  0  0  0  0  0  0
    7.3914   -0.6975   -1.1538 N   0  0  0  0  0  0  0  0  0  0  0  0
   -2.5942    0.0461   -0.4848 C   0  0  0  0  0  0  0  0  0  0  0  0
   -3.4933   -0.8389    0.1101 C   0  0  0  0  0  0  0  0  0  0  0  0
    1.1547    0.3674   -0.0345 C   0  0  0  0  0  0  0  0  0  0  0  0
    3.9329    0.1146   -0.0177 C   0  0  0  0  0  0  0  0  0  0  0  0
   -4.8254   -0.4652    0.2883 C   0  0  0  0  0  0  0  0  0  0  0  0
   -1.1704   -0.3312   -0.6851 C   0  0  0  0  0  0  0  0  0  0  0  0
   -3.0271    1.3049   -0.9016 C   0  0  0  0  0  0  0  0  0  0  0  0
   -5.2583    0.7935   -0.1285 C   0  0  0  0  0  0  0  0  0  0  0  0
    1.9327    1.2691    0.6917 C   0  0  0  0  0  0  0  0  0  0  0  0
    1.7658   -0.6607   -0.7522 C   0  0  0  0  0  0  0  0  0  0  0  0
    3.3218    1.1425    0.7002 C   0  0  0  0  0  0  0  0  0  0  0  0
    3.1549   -0.7871   -0.7440 C   0  0  0  0  0  0  0  0  0  0  0  0
   -4.3593    1.6785   -0.7236 C   0  0  0  0  0  0  0  0  0  0  0  0
    5.3736   -0.0160   -0.0099 C   0  0  0  0  0  0  0  0  0  0  0  0
    6.1241    0.3886    1.0885 C   0  0  0  0  0  0  0  0  0  0  0  0
    6.0490   -0.5479   -1.0965 C   0  0  0  0  0  0  0  0  0  0  0  0
    7.5075    0.2508    1.0670 C   0  0  0  0  0  0  0  0  0  0  0  0
   -2.5921   -2.1779    1.8566 C   0  0  0  0  0  0  0  0  0  0  0  0
   -6.4105   -2.2151    0.0040 C   0  0  0  0  0  0  0  0  0  0  0  0
    8.0876   -0.2932   -0.0678 C   0  0  0  0  0  0  0  0  0  0  0  0
   -6.9153    2.4752   -0.4144 C   0  0  0  0  0  0  0  0  0  0  0  0
   -2.3387    2.0030   -1.3713 H   0  0  0  0  0  0  0  0  0  0  0  0
   -0.6017    1.2704    0.5000 H   0  0  0  0  0  0  0  0  0  0  0  0
    1.2337   -1.3977   -1.3368 H   0  0  0  0  0  0  0  0  0  0  0  0
    3.8892    1.8823    1.2580 H   0  0  0  0  0  0  0  0  0  0  0  0
    3.5880   -1.6173   -1.2954 H   0  0  0  0  0  0  0  0  0  0  0  0
   -4.6240    2.6707   -1.0726 H   0  0  0  0  0  0  0  0  0  0  0  0
    5.6706    0.7902    1.9903 H   0  0  0  0  0  0  0  0  0  0  0  0
    5.5482   -0.8635   -2.0063 H   0  0  0  0  0  0  0  0  0  0  0  0
    8.1126    0.5533    1.9140 H   0  0  0  0  0  0  0  0  0  0  0  0
   -2.2822   -3.2126    2.0265 H   0  0  0  0  0  0  0  0  0  0  0  0
   -3.3816   -1.9283    2.5723 H   0  0  0  0  0  0  0  0  0  0  0  0
   -1.7272   -1.5253    2.0109 H   0  0  0  0  0  0  0  0  0  0  0  0
   -7.0703   -2.8377    0.6144 H   0  0  0  0  0  0  0  0  0  0  0  0
   -5.7126   -2.8663   -0.5318 H   0  0  0  0  0  0  0  0  0  0  0  0
   -7.0216   -1.6527   -0.7090 H   0  0  0  0  0  0  0  0  0  0  0  0
    9.1627   -0.4234   -0.1338 H   0  0  0  0  0  0  0  0  0  0  0  0
   -7.9813    2.6079   -0.2018 H   0  0  0  0  0  0  0  0  0  0  0  0
   -6.3818    3.2564    0.1378 H   0  0  0  0  0  0  0  0  0  0  0  0
   -6.7933    2.5728   -1.4985 H   0  0  0  0  0  0  0  0  0  0  0  0
  1 16  1  0  0  0  0
  2  9  1  0  0  0  0
  2 25  1  0  0  0  0
  3 12  1  0  0  0  0
  3 26  1  0  0  0  0
  4 15  1  0  0  0  0
  4 28  1  0  0  0  0
  5 13  2  0  0  0  0
  6 10  1  0  0  0  0
  6 13  1  0  0  0  0
  6 30  1  0  0  0  0
  7 23  1  0  0  0  0
  7 27  2  0  0  0  0
  8  9  2  0  0  0  0
  8 13  1  0  0  0  0
  8 14  1  0  0  0  0
  9 12  1  0  0  0  0
 10 16  2  0  0  0  0
 10 17  1  0  0  0  0
 11 18  2  0  0  0  0
 11 19  1  0  0  0  0
 11 21  1  0  0  0  0
 12 15  2  0  0  0  0
 14 20  2  0  0  0  0
 14 29  1  0  0  0  0
 15 20  1  0  0  0  0
 16 18  1  0  0  0  0
 17 19  2  0  0  0  0
 17 31  1  0  0  0  0
 18 32  1  0  0  0  0
 19 33  1  0  0  0  0
 20 34  1  0  0  0  0
 21 22  1  0  0  0  0
 21 23  2  0  0  0  0
 22 24  2  0  0  0  0
 22 35  1  0  0  0  0
 23 36  1  0  0  0  0
 24 27  1  0  0  0  0
 24 37  1  0  0  0  0
 25 38  1  0  0  0  0
 25 39  1  0  0  0  0
 25 40  1  0  0  0  0
 26 41  1  0  0  0  0
 26 42  1  0  0  0  0
 26 43  1  0  0  0  0
 27 44  1  0  0  0  0
 28 45  1  0  0  0  0
 28 46  1  0  0  0  0
 28 47  1  0  0  0  0
M  END
> <PUBCHEM_COMPOUND_CID>
118708514

> <PUBCHEM_CONFORMER_RMSD>
0.8

> <PUBCHEM_CONFORMER_DIVERSEORDER>
2
36
34
47
26
22
29
45
16
32
51
46
5
25
13
12
41
35
31
15
52
48
39
42
24
33
18
38
27
8
50
4
43
3
17
49
40
28
53
54
6
11
21
10
23
19
14
20
30
44
1
9
37
7

> <PUBCHEM_MMFF94_PARTIAL_CHARGES>
36
1 -0.19
10 0.12
12 0.08
13 0.54
14 -0.15
15 0.08
16 0.19
17 -0.15
18 -0.15
19 -0.15
2 -0.36
20 -0.15
22 -0.15
23 0.16
24 -0.15
25 0.28
26 0.28
27 0.16
28 0.28
29 0.15
3 -0.36
30 0.37
31 0.15
32 0.15
33 0.15
34 0.15
35 0.15
36 0.15
37 0.15
4 -0.36
44 0.15
5 -0.57
6 -0.55
7 -0.62
8 0.09
9 0.08

> <PUBCHEM_EFFECTIVE_ROTOR_COUNT>
7

> <PUBCHEM_PHARMACOPHORE_FEATURES>
9
1 2 acceptor
1 3 acceptor
1 4 acceptor
1 5 acceptor
1 6 donor
1 7 acceptor
6 10 11 16 17 18 19 rings
6 7 21 22 23 24 27 rings
6 8 9 12 14 15 20 rings

> <PUBCHEM_HEAVY_ATOM_COUNT>
28

> <PUBCHEM_ATOM_DEF_STEREO_COUNT>
0

> <PUBCHEM_ATOM_UDEF_STEREO_COUNT>
0

> <PUBCHEM_BOND_DEF_STEREO_COUNT>
0

> <PUBCHEM_BOND_UDEF_STEREO_COUNT>
0

> <PUBCHEM_ISOTOPIC_ATOM_COUNT>
0

> <PUBCHEM_COMPONENT_COUNT>
1

> <PUBCHEM_CACTVS_TAUTO_COUNT>
5

> <PUBCHEM_CONFORMER_ID>
0713592200000002

> <PUBCHEM_MMFF94_ENERGY>
122.5738

> <PUBCHEM_FEATURE_SELFOVERLAP>
45.684

> <PUBCHEM_SHAPE_FINGERPRINT>
10 15 18342451587060013784
10299344 5 17313104150900884498
10319926 262 18336254725860283865
10411042 1 18045507676244012027
11089746 13 15195563520276848890
11315181 36 18131355215112745377
11524674 6 18201719573934225646
11646440 116 17632861945037130128
11719270 70 18272369755309301950
11796584 16 18187368744680257706
12089408 11 17676205776295006926
12166972 35 16630518578907056313
12236239 1 16081087082431687694
12516196 113 17918275359619170024
13402501 40 18341894082529180597
13685833 64 18130791174675253030
13782708 43 18270683202676266355
13885169 127 18410011026618657741
14251764 18 17967812747358663018
14849402 71 16371022836053261236
14856354 85 17676211294357908582
14933364 13 18408041814848450836
15131766 46 11454443334735383346
15142383 8 18411978045122371564
15183329 4 18410576150121040760
15419008 47 18201995517462661608
15461852 350 18060131064322063805
15510794 2 18342458132801513758
15849732 13 17703788124277570876
17093844 174 18272365390836071227
18608769 82 18411982485712399751
21033648 29 18201143429814319009
21150785 3 13110956531111358116
21267235 1 18059862766473698164
21365058 27 16081092562767747386
21792961 116 18270398283620607068
220451 1 17022900151736056506
23035841 295 17385722504538020946
23516275 137 17459761306886810154
23522609 53 16878809118266429196
23559900 14 18409164420314826193
249057 3 18040998444669337341
335352 9 17988920076746729244
3383291 50 18338233872766683099
3633792 109 16271651078972202701
397830 11 18269829990553887256
4073 2 18041564736629223106
5265222 85 18188219818034991270
58260988 114 14707792705086846721
59755656 215 18341332202275778198
59755656 520 15357701898238502289
6009941 240 18408324380372152530
6691757 9 17894355471841720347

> <PUBCHEM_SHAPE_MULTIPOLES>
535.51
22.43
2.02
1.19
17.49
0.07
-0.16
-0.68
-0.3
-4.67
-0.42
0.81
0.21
1.87

> <PUBCHEM_SHAPE_SELFOVERLAP>
1165.697

> <PUBCHEM_SHAPE_VOLUME>
293.5

> <PUBCHEM_COORDINATE_TYPE>
2
5
10

$$$$