56945526
  -OEChem-03242010103D

 42 44  0     0  0  0  0  0  0999 V2000
    6.1698    1.6593    0.2737 O   0  0  0  0  0  0  0  0  0  0  0  0
    4.9110   -2.9481   -0.0750 O   0  0  0  0  0  0  0  0  0  0  0  0
    6.8718   -1.0201    0.2485 O   0  0  0  0  0  0  0  0  0  0  0  0
    1.2428    1.6153   -0.8113 O   0  0  0  0  0  0  0  0  0  0  0  0
    0.5328   -0.4455    0.0707 N   0  0  0  0  0  0  0  0  0  0  0  0
   -3.6390   -0.1158    0.0563 C   0  0  0  0  0  0  0  0  0  0  0  0
   -0.8580   -0.3354    0.0659 C   0  0  0  0  0  0  0  0  0  0  0  0
   -5.0815   -0.0033    0.0515 C   0  0  0  0  0  0  0  0  0  0  0  0
    2.8972    0.1002   -0.1956 C   0  0  0  0  0  0  0  0  0  0  0  0
   -3.0331   -1.2813    0.5253 C   0  0  0  0  0  0  0  0  0  0  0  0
   -2.8545    0.9400   -0.4079 C   0  0  0  0  0  0  0  0  0  0  0  0
   -1.6426   -1.3911    0.5301 C   0  0  0  0  0  0  0  0  0  0  0  0
   -1.4639    0.8302   -0.4032 C   0  0  0  0  0  0  0  0  0  0  0  0
    1.4746    0.5017   -0.3529 C   0  0  0  0  0  0  0  0  0  0  0  0
    3.8823    1.0742   -0.0331 C   0  0  0  0  0  0  0  0  0  0  0  0
    3.2471   -1.2501   -0.2091 C   0  0  0  0  0  0  0  0  0  0  0  0
    5.2173    0.6982    0.1158 C   0  0  0  0  0  0  0  0  0  0  0  0
   -5.7439    0.5165    1.1635 C   0  0  0  0  0  0  0  0  0  0  0  0
   -5.8096   -0.4147   -1.0647 C   0  0  0  0  0  0  0  0  0  0  0  0
    4.5821   -1.6261   -0.0602 C   0  0  0  0  0  0  0  0  0  0  0  0
    5.5671   -0.6520    0.1022 C   0  0  0  0  0  0  0  0  0  0  0  0
   -7.1346    0.6251    1.1593 C   0  0  0  0  0  0  0  0  0  0  0  0
   -7.2002   -0.3062   -1.0691 C   0  0  0  0  0  0  0  0  0  0  0  0
   -7.8627    0.2137    0.0430 C   0  0  0  0  0  0  0  0  0  0  0  0
    5.7275    3.0153    0.2762 C   0  0  0  0  0  0  0  0  0  0  0  0
   -3.6298   -2.1138    0.8906 H   0  0  0  0  0  0  0  0  0  0  0  0
   -3.3121    1.8552   -0.7768 H   0  0  0  0  0  0  0  0  0  0  0  0
   -1.1842   -2.3055    0.8983 H   0  0  0  0  0  0  0  0  0  0  0  0
   -0.9267    1.6898   -0.7781 H   0  0  0  0  0  0  0  0  0  0  0  0
    0.8725   -1.3130    0.4755 H   0  0  0  0  0  0  0  0  0  0  0  0
    3.5584    2.1092   -0.0216 H   0  0  0  0  0  0  0  0  0  0  0  0
    2.5099   -2.0307   -0.3728 H   0  0  0  0  0  0  0  0  0  0  0  0
   -5.1916    0.8419    2.0420 H   0  0  0  0  0  0  0  0  0  0  0  0
   -5.3090   -0.8223   -1.9399 H   0  0  0  0  0  0  0  0  0  0  0  0
   -7.6505    1.0298    2.0251 H   0  0  0  0  0  0  0  0  0  0  0  0
   -7.7674   -0.6264   -1.9382 H   0  0  0  0  0  0  0  0  0  0  0  0
   -8.9455    0.2981    0.0396 H   0  0  0  0  0  0  0  0  0  0  0  0
    4.1032   -3.4765   -0.1936 H   0  0  0  0  0  0  0  0  0  0  0  0
    6.9225   -1.9912    0.2141 H   0  0  0  0  0  0  0  0  0  0  0  0
    6.6151    3.6426    0.4100 H   0  0  0  0  0  0  0  0  0  0  0  0
    5.0634    3.2224    1.1223 H   0  0  0  0  0  0  0  0  0  0  0  0
    5.2827    3.2974   -0.6843 H   0  0  0  0  0  0  0  0  0  0  0  0
  1 17  1  0  0  0  0
  1 25  1  0  0  0  0
  2 20  1  0  0  0  0
  2 38  1  0  0  0  0
  3 21  1  0  0  0  0
  3 39  1  0  0  0  0
  4 14  2  0  0  0  0
  5  7  1  0  0  0  0
  5 14  1  0  0  0  0
  5 30  1  0  0  0  0
  6  8  1  0  0  0  0
  6 10  2  0  0  0  0
  6 11  1  0  0  0  0
  7 12  2  0  0  0  0
  7 13  1  0  0  0  0
  8 18  2  0  0  0  0
  8 19  1  0  0  0  0
  9 14  1  0  0  0  0
  9 15  1  0  0  0  0
  9 16  2  0  0  0  0
 10 12  1  0  0  0  0
 10 26  1  0  0  0  0
 11 13  2  0  0  0  0
 11 27  1  0  0  0  0
 12 28  1  0  0  0  0
 13 29  1  0  0  0  0
 15 17  2  0  0  0  0
 15 31  1  0  0  0  0
 16 20  1  0  0  0  0
 16 32  1  0  0  0  0
 17 21  1  0  0  0  0
 18 22  1  0  0  0  0
 18 33  1  0  0  0  0
 19 23  2  0  0  0  0
 19 34  1  0  0  0  0
 20 21  2  0  0  0  0
 22 24  2  0  0  0  0
 22 35  1  0  0  0  0
 23 24  1  0  0  0  0
 23 36  1  0  0  0  0
 24 37  1  0  0  0  0
 25 40  1  0  0  0  0
 25 41  1  0  0  0  0
 25 42  1  0  0  0  0
M  END
> <PUBCHEM_COMPOUND_CID>
56945526

> <PUBCHEM_CONFORMER_RMSD>
0.8

> <PUBCHEM_CONFORMER_DIVERSEORDER>
2
3
6
5
1
4

> <PUBCHEM_MMFF94_PARTIAL_CHARGES>
37
1 -0.36
10 -0.15
11 -0.15
12 -0.15
13 -0.15
14 0.54
15 -0.15
16 -0.15
17 0.08
18 -0.15
19 -0.15
2 -0.53
20 0.08
21 0.08
22 -0.15
23 -0.15
24 -0.15
25 0.28
26 0.15
27 0.15
28 0.15
29 0.15
3 -0.53
30 0.37
31 0.15
32 0.15
33 0.15
34 0.15
35 0.15
36 0.15
37 0.15
38 0.45
39 0.45
4 -0.57
5 -0.55
7 0.12
9 0.09

> <PUBCHEM_EFFECTIVE_ROTOR_COUNT>
5

> <PUBCHEM_PHARMACOPHORE_FEATURES>
8
1 1 acceptor
1 2 donor
1 3 donor
1 4 acceptor
1 5 donor
6 6 7 10 11 12 13 rings
6 8 18 19 22 23 24 rings
6 9 15 16 17 20 21 rings

> <PUBCHEM_HEAVY_ATOM_COUNT>
25

> <PUBCHEM_ATOM_DEF_STEREO_COUNT>
0

> <PUBCHEM_ATOM_UDEF_STEREO_COUNT>
0

> <PUBCHEM_BOND_DEF_STEREO_COUNT>
0

> <PUBCHEM_BOND_UDEF_STEREO_COUNT>
0

> <PUBCHEM_ISOTOPIC_ATOM_COUNT>
0

> <PUBCHEM_COMPONENT_COUNT>
1

> <PUBCHEM_CACTVS_TAUTO_COUNT>
22

> <PUBCHEM_CONFORMER_ID>
0364EB7600000002

> <PUBCHEM_MMFF94_ENERGY>
92.6063

> <PUBCHEM_FEATURE_SELFOVERLAP>
40.601

> <PUBCHEM_SHAPE_FINGERPRINT>
10 15 17530962531548220452
10299344 5 18060700589553909935
10411042 1 18051413969161643542
10595046 47 18201719552685462505
10835480 77 18337670935597267568
11315181 36 18059857290727953833
12166972 35 18413109459313990081
12236239 1 18131350804582037839
125118 31 18040718060772848397
12516196 113 18272368672117394689
13167372 99 18201162057319759201
13533116 47 18343582915336182514
13685833 64 18187367605748668974
14170010 4 18187365445554420092
14251764 18 18131351921241912205
14251764 46 18273777147213955294
14347424 109 18410853244542248448
14849402 71 18201722915999128281
15183329 4 18410011022582380859
15419008 47 17312814979269538053
15419008 91 17531231894865006309
15716309 27 18273213089127232325
1577012 14 18131072632588204017
16120349 18 18412258471330697804
17844677 252 18411423873823822308
19427546 62 18336828723318922410
20157964 124 18411981373537123806
20281389 69 18334575741814529657
21130935 74 18411703192653286051
21150785 3 17775001332324564469
21236236 1 18336546007054959077
21267235 1 18337676317919088238
21344244 78 18058998490368196778
21792934 111 18335411353377013256
21859007 373 17168686579821239669
23035841 295 12179842810485597209
23081809 10 17917711301484986931
23522609 53 17845675723328885865
23536379 177 17989488503004693347
23559900 14 18338229496389647945
23569943 247 18119246160708364643
255183 451 17915471485242735206
29717793 49 17846787295440437238
3004659 81 17967813843076242956
335352 9 18260832609035365055
34797466 226 17989212555593059116
3545911 37 18259985972217946958
4073 2 18261114135641620506
44555599 121 18059864960669912769
5104073 3 18334298711812310698
59755656 215 17458624480435439539

> <PUBCHEM_SHAPE_MULTIPOLES>
486.03
22.6
1.99
0.88
11.71
0.16
-0.01
2.21
-1.38
-4.92
-0.11
1.36
0.06
-0.18

> <PUBCHEM_SHAPE_SELFOVERLAP>
1066.208

> <PUBCHEM_SHAPE_VOLUME>
262.3

> <PUBCHEM_COORDINATE_TYPE>
2
5
10

$$$$