17
 OpenBabel03292022253D

199199  0  0  1  0  0  0  0  0999 V2000
   11.3144    8.1496    4.6467 C   0  0  0  0  0  0  0  0  0  0  0  0
   12.1697    9.2141    5.2928 C   0  0  0  0  0  0  0  0  0  0  0  0
   12.4832   10.4566    4.8146 C   0  0  0  0  0  0  0  0  0  0  0  0
   13.3502   11.5270    5.5711 C   0  0  0  0  0  0  0  0  0  0  0  0
   14.4823   12.4075    4.8134 C   0  0  3  0  0  0  0  0  0  0  0  0
   13.7534   13.4635    3.9649 C   0  0  0  0  0  0  0  0  0  0  0  0
   15.7636   13.1684    5.6996 C   0  0  3  0  0  0  0  0  0  0  0  0
   15.4130   13.0317    7.0868 O   0  0  0  0  0  0  0  0  0  0  0  0
   17.4424   12.6885    5.5216 C   0  0  3  0  0  0  0  0  0  0  0  0
   17.1031   11.4794    4.4727 C   0  0  0  0  0  0  0  0  0  0  0  0
   17.0990   11.7333    3.2720 O   0  0  0  0  0  0  0  0  0  0  0  0
   16.4677   10.2664    5.0070 N   0  0  0  0  0  0  0  0  0  0  0  0
   15.5113    9.1283    4.3830 C   0  0  3  0  0  0  0  0  0  0  0  0
   15.0546    9.2637    2.9051 C   0  0  0  0  0  0  0  0  0  0  0  0
   14.1846    8.1380    2.3009 C   0  0  0  0  0  0  0  0  0  0  0  0
   15.7107    7.5515    4.5605 C   0  0  0  0  0  0  0  0  0  0  0  0
   14.9015    6.8459    5.1638 O   0  0  0  0  0  0  0  0  0  0  0  0
   16.7577    7.0106    3.8037 N   0  0  0  0  0  0  0  0  0  0  0  0
   16.7667    5.5972    3.4291 C   0  0  0  0  0  0  0  0  0  0  0  0
   17.9984    7.6780    4.0636 C   0  0  3  0  0  0  0  0  0  0  0  0
   19.0073    6.8464    4.8441 C   0  0  0  0  0  0  0  0  0  0  0  0
   18.4068    8.8907    3.1744 C   0  0  0  0  0  0  0  0  0  0  0  0
   18.8329    9.8483    3.8180 O   0  0  0  0  0  0  0  0  0  0  0  0
   18.5475    8.9317    1.7920 N   0  0  0  0  0  0  0  0  0  0  0  0
   18.3407   10.2905    1.1439 C   0  0  0  0  0  0  0  0  0  0  0  0
   16.9682   10.6481    0.5720 C   0  0  0  0  0  0  0  0  0  0  0  0
   19.8714    8.3754    1.4018 C   0  0  3  0  0  0  0  0  0  0  0  0
   19.8303    7.9953   -0.1128 C   0  0  0  0  0  0  0  0  0  0  0  0
   20.9767    7.0708   -0.4870 C   0  0  0  0  0  0  0  0  0  0  0  0
   18.5002    7.3100   -0.5001 C   0  0  0  0  0  0  0  0  0  0  0  0
   20.9915    9.4358    1.8461 C   0  0  0  0  0  0  0  0  0  0  0  0
   21.4505   10.2959    1.1160 O   0  0  0  0  0  0  0  0  0  0  0  0
   21.2642    9.4392    3.2480 N   0  0  0  0  0  0  0  0  0  0  0  0
   21.2772   10.6293    4.1486 C   0  0  3  0  0  0  0  0  0  0  0  0
   20.9667   10.2032    5.6633 C   0  0  0  0  0  0  0  0  0  0  0  0
   21.7426    8.9756    6.1504 C   0  0  0  0  0  0  0  0  0  0  0  0
   21.1206   11.3167    6.7111 C   0  0  0  0  0  0  0  0  0  0  0  0
   22.6078   11.3554    4.1343 C   0  0  0  0  0  0  0  0  0  0  0  0
   23.5026   10.9793    4.9062 O   0  0  0  0  0  0  0  0  0  0  0  0
   22.8692   12.3373    3.1902 N   0  0  0  0  0  0  0  0  0  0  0  0
   21.9030   13.0945    2.3893 C   0  0  0  0  0  0  0  0  0  0  0  0
   24.2776   12.5310    2.9344 C   0  0  3  0  0  0  0  0  0  0  0  0
   24.7430   12.3361    1.5023 C   0  0  0  0  0  0  0  0  0  0  0  0
   26.1952   11.7854    1.4828 C   0  0  0  0  0  0  0  0  0  0  0  0
   26.4284   10.5234    2.3435 C   0  0  0  0  0  0  0  0  0  0  0  0
   26.5862   11.4640    0.0489 C   0  0  0  0  0  0  0  0  0  0  0  0
   25.0049   13.6043    3.7556 C   0  0  0  0  0  0  0  0  0  0  0  0
   25.2659   14.7449    3.3832 O   0  0  0  0  0  0  0  0  0  0  0  0
   25.4004   13.1012    4.9875 N   0  0  0  0  0  0  0  0  0  0  0  0
   26.3562   13.7819    5.8049 C   0  0  3  0  0  0  0  0  0  0  0  0
   26.3145   13.2996    7.2444 C   0  0  0  0  0  0  0  0  0  0  0  0
   27.7911   13.6151    5.3195 C   0  0  0  0  0  0  0  0  0  0  0  0
   28.3311   12.5228    5.1842 O   0  0  0  0  0  0  0  0  0  0  0  0
   28.4486   14.8217    5.1737 N   0  0  0  0  0  0  0  0  0  0  0  0
   29.8781   14.8439    5.0065 C   0  0  3  0  0  0  0  0  0  0  0  0
   30.2864   14.4260    3.5881 C   0  0  0  0  0  0  0  0  0  0  0  0
   30.4798   16.2116    5.3506 C   0  0  0  0  0  0  0  0  0  0  0  0
   31.2995   16.7012    4.5682 O   0  0  0  0  0  0  0  0  0  0  0  0
   30.3091   16.7665    6.6297 N   0  0  0  0  0  0  0  0  0  0  0  0
   31.5526   17.4458    7.0583 C   0  0  0  0  0  0  0  0  0  0  0  0
   28.9848   16.9115    7.5199 C   0  0  3  0  0  0  0  0  0  0  0  0
   29.5722   17.0469    8.9997 C   0  0  0  0  0  0  0  0  0  0  0  0
   28.7949   17.3127   10.2994 C   0  0  0  0  0  0  0  0  0  0  0  0
   29.7863   17.1645   11.4805 C   0  0  0  0  0  0  0  0  0  0  0  0
   28.2293   18.7284   10.4054 C   0  0  0  0  0  0  0  0  0  0  0  0
   28.0345   18.2008    7.2503 C   0  0  0  0  0  0  0  0  0  0  0  0
   28.5510   19.2970    7.4494 O   0  0  0  0  0  0  0  0  0  0  0  0
   26.5651   18.1235    6.9896 N   0  0  0  0  0  0  0  0  0  0  0  0
   25.9130   19.3662    7.4064 C   0  0  0  0  0  0  0  0  0  0  0  0
   25.8959   17.5784    5.6794 C   0  0  3  0  0  0  0  0  0  0  0  0
   26.4969   18.5421    4.4228 C   0  0  0  0  0  0  0  0  0  0  0  0
   27.7172   19.6036    4.5397 C   0  0  0  0  0  0  0  0  0  0  0  0
   29.1465   19.0638    4.3827 C   0  0  0  0  0  0  0  0  0  0  0  0
   27.6557   20.7526    3.5117 C   0  0  0  0  0  0  0  0  0  0  0  0
   24.0591   17.1782    5.4438 C   0  0  0  0  0  0  0  0  0  0  0  0
   23.4237   17.9075    4.6678 O   0  0  0  0  0  0  0  0  0  0  0  0
   23.2779   16.0310    6.1454 N   0  0  0  0  0  0  0  0  0  0  0  0
   24.0042   15.7563    7.3645 C   0  0  0  0  0  0  0  0  0  0  0  0
   21.5064   15.5115    6.2367 C   0  0  3  0  0  0  0  0  0  0  0  0
   20.9004   16.5173    7.2844 C   0  0  0  0  0  0  0  0  0  0  0  0
   21.2594   16.1591    8.7454 C   0  0  0  0  0  0  0  0  0  0  0  0
   21.2200   17.9907    7.0222 C   0  0  0  0  0  0  0  0  0  0  0  0
   20.0512   14.6065    5.3258 C   0  0  0  0  0  0  0  0  0  0  0  0
   20.0957   14.5572    4.0892 O   0  0  0  0  0  0  0  0  0  0  0  0
   18.7686   13.8511    6.0002 N   0  0  0  0  0  0  0  0  0  0  0  0
   18.4527   14.4141    7.2858 C   0  0  0  0  0  0  0  0  0  0  0  0
   11.6542    7.1503    4.9620 H   0  0  0  0  0  0  0  0  0  0  0  0
   11.3441    8.1591    3.5531 H   0  0  0  0  0  0  0  0  0  0  0  0
   10.2698    8.2339    4.9623 H   0  0  0  0  0  0  0  0  0  0  0  0
   12.5842    8.8982    6.2446 H   0  0  0  0  0  0  0  0  0  0  0  0
   12.0490   10.7457    3.8565 H   0  0  0  0  0  0  0  0  0  0  0  0
   13.8041   11.0302    6.4362 H   0  0  0  0  0  0  0  0  0  0  0  0
   12.6025   12.2309    5.9594 H   0  0  0  0  0  0  0  0  0  0  0  0
   14.8947   11.7736    4.0413 H   0  0  0  0  0  0  0  0  0  0  0  0
   13.1274   14.1085    4.5858 H   0  0  0  0  0  0  0  0  0  0  0  0
   13.1069   12.9806    3.2196 H   0  0  0  0  0  0  0  0  0  0  0  0
   14.4703   14.0796    3.4154 H   0  0  0  0  0  0  0  0  0  0  0  0
   15.7425   14.2330    5.4492 H   0  0  0  0  0  0  0  0  0  0  0  0
   14.4869   13.3226    7.1756 H   0  0  0  0  0  0  0  0  0  0  0  0
   17.5976   12.0693    6.4225 H   0  0  0  0  0  0  0  0  0  0  0  0
   16.4885   10.2066    6.0165 H   0  0  0  0  0  0  0  0  0  0  0  0
   14.6478    9.2702    5.0216 H   0  0  0  0  0  0  0  0  0  0  0  0
   15.9474    9.2496    2.2990 H   0  0  0  0  0  0  0  0  0  0  0  0
   14.5278   10.2030    2.7445 H   0  0  0  0  0  0  0  0  0  0  0  0
   14.7892    7.2734    2.0010 H   0  0  0  0  0  0  0  0  0  0  0  0
   13.6916    8.4841    1.3854 H   0  0  0  0  0  0  0  0  0  0  0  0
   13.4176    7.7758    2.9832 H   0  0  0  0  0  0  0  0  0  0  0  0
   15.7456    5.2229    3.3167 H   0  0  0  0  0  0  0  0  0  0  0  0
   17.2638    4.9975    4.1946 H   0  0  0  0  0  0  0  0  0  0  0  0
   17.2922    5.4915    2.4763 H   0  0  0  0  0  0  0  0  0  0  0  0
   17.7291    8.2831    4.9410 H   0  0  0  0  0  0  0  0  0  0  0  0
   19.4486    6.0282    4.2782 H   0  0  0  0  0  0  0  0  0  0  0  0
   18.5027    6.4130    5.7250 H   0  0  0  0  0  0  0  0  0  0  0  0
   19.7885    7.4782    5.2488 H   0  0  0  0  0  0  0  0  0  0  0  0
   18.9934   10.3630    0.2697 H   0  0  0  0  0  0  0  0  0  0  0  0
   18.7016   11.0814    1.8072 H   0  0  0  0  0  0  0  0  0  0  0  0
   16.5671    9.8678   -0.0782 H   0  0  0  0  0  0  0  0  0  0  0  0
   17.0517   11.5666   -0.0214 H   0  0  0  0  0  0  0  0  0  0  0  0
   16.2181   10.8871    1.3199 H   0  0  0  0  0  0  0  0  0  0  0  0
   20.0469    7.4632    1.9868 H   0  0  0  0  0  0  0  0  0  0  0  0
   19.9315    8.8914   -0.7333 H   0  0  0  0  0  0  0  0  0  0  0  0
   20.9308    6.1363    0.0803 H   0  0  0  0  0  0  0  0  0  0  0  0
   21.9407    7.5514   -0.3045 H   0  0  0  0  0  0  0  0  0  0  0  0
   20.9227    6.8199   -1.5527 H   0  0  0  0  0  0  0  0  0  0  0  0
   18.2790    6.4628    0.1578 H   0  0  0  0  0  0  0  0  0  0  0  0
   18.5282    6.9438   -1.5317 H   0  0  0  0  0  0  0  0  0  0  0  0
   17.6518    7.9976   -0.4471 H   0  0  0  0  0  0  0  0  0  0  0  0
   20.7673    8.6755    3.6798 H   0  0  0  0  0  0  0  0  0  0  0  0
   20.4982   11.3337    3.8389 H   0  0  0  0  0  0  0  0  0  0  0  0
   19.9079    9.9246    5.7189 H   0  0  0  0  0  0  0  0  0  0  0  0
   22.7916    9.1969    6.3540 H   0  0  0  0  0  0  0  0  0  0  0  0
   21.7183    8.1515    5.4368 H   0  0  0  0  0  0  0  0  0  0  0  0
   21.2979    8.6067    7.0832 H   0  0  0  0  0  0  0  0  0  0  0  0
   22.1548   11.6447    6.8393 H   0  0  0  0  0  0  0  0  0  0  0  0
   20.7747   10.9673    7.6913 H   0  0  0  0  0  0  0  0  0  0  0  0
   20.5212   12.1842    6.4510 H   0  0  0  0  0  0  0  0  0  0  0  0
   22.0405   12.8653    1.3316 H   0  0  0  0  0  0  0  0  0  0  0  0
   22.0845   14.1597    2.5417 H   0  0  0  0  0  0  0  0  0  0  0  0
   20.8739   12.8593    2.6485 H   0  0  0  0  0  0  0  0  0  0  0  0
   24.6887   11.6293    3.3606 H   0  0  0  0  0  0  0  0  0  0  0  0
   24.6668   13.2677    0.9354 H   0  0  0  0  0  0  0  0  0  0  0  0
   24.0851   11.6036    1.0098 H   0  0  0  0  0  0  0  0  0  0  0  0
   26.8586   12.5734    1.8634 H   0  0  0  0  0  0  0  0  0  0  0  0
   25.7172    9.7298    2.0848 H   0  0  0  0  0  0  0  0  0  0  0  0
   26.3426   10.7128    3.4201 H   0  0  0  0  0  0  0  0  0  0  0  0
   27.4426   10.1405    2.2077 H   0  0  0  0  0  0  0  0  0  0  0  0
   25.9791   10.6386   -0.3412 H   0  0  0  0  0  0  0  0  0  0  0  0
   27.6370   11.1659    0.0035 H   0  0  0  0  0  0  0  0  0  0  0  0
   26.4438   12.3334   -0.5975 H   0  0  0  0  0  0  0  0  0  0  0  0
   25.1605   12.1323    5.2070 H   0  0  0  0  0  0  0  0  0  0  0  0
   26.0990   14.8271    5.7555 H   0  0  0  0  0  0  0  0  0  0  0  0
   26.9288   13.9471    7.8821 H   0  0  0  0  0  0  0  0  0  0  0  0
   26.7053   12.2809    7.3313 H   0  0  0  0  0  0  0  0  0  0  0  0
   25.2956   13.2897    7.6349 H   0  0  0  0  0  0  0  0  0  0  0  0
   27.9359   15.5593    4.7070 H   0  0  0  0  0  0  0  0  0  0  0  0
   30.3173   14.1249    5.7124 H   0  0  0  0  0  0  0  0  0  0  0  0
   29.9075   15.1365    2.8431 H   0  0  0  0  0  0  0  0  0  0  0  0
   29.9068   13.4348    3.3259 H   0  0  0  0  0  0  0  0  0  0  0  0
   31.3787   14.3951    3.4882 H   0  0  0  0  0  0  0  0  0  0  0  0
   32.4094   17.2113    6.4124 H   0  0  0  0  0  0  0  0  0  0  0  0
   31.8753   17.0660    8.0335 H   0  0  0  0  0  0  0  0  0  0  0  0
   31.4105   18.5262    7.0720 H   0  0  0  0  0  0  0  0  0  0  0  0
   28.4038   16.0002    7.4210 H   0  0  0  0  0  0  0  0  0  0  0  0
   30.2871   17.8818    8.9871 H   0  0  0  0  0  0  0  0  0  0  0  0
   30.1692   16.1349    9.1640 H   0  0  0  0  0  0  0  0  0  0  0  0
   27.9953   16.5761   10.4138 H   0  0  0  0  0  0  0  0  0  0  0  0
   30.2605   16.1785   11.4898 H   0  0  0  0  0  0  0  0  0  0  0  0
   30.5865   17.9160   11.4232 H   0  0  0  0  0  0  0  0  0  0  0  0
   29.2794   17.3029   12.4415 H   0  0  0  0  0  0  0  0  0  0  0  0
   28.9693   19.4859   10.1165 H   0  0  0  0  0  0  0  0  0  0  0  0
   27.9173   18.9597   11.4300 H   0  0  0  0  0  0  0  0  0  0  0  0
   27.3472   18.8365    9.7833 H   0  0  0  0  0  0  0  0  0  0  0  0
   24.8862   19.1429    7.7064 H   0  0  0  0  0  0  0  0  0  0  0  0
   25.8956   20.0866    6.5853 H   0  0  0  0  0  0  0  0  0  0  0  0
   26.4224   19.8549    8.2389 H   0  0  0  0  0  0  0  0  0  0  0  0
   26.4108   16.6415    5.5109 H   0  0  0  0  0  0  0  0  0  0  0  0
   26.7653   17.8529    3.6112 H   0  0  0  0  0  0  0  0  0  0  0  0
   25.6408   19.1196    4.0626 H   0  0  0  0  0  0  0  0  0  0  0  0
   27.6603   20.1272    5.4927 H   0  0  0  0  0  0  0  0  0  0  0  0
   29.2916   18.5021    3.4565 H   0  0  0  0  0  0  0  0  0  0  0  0
   29.4201   18.4446    5.2162 H   0  0  0  0  0  0  0  0  0  0  0  0
   29.8909   19.8770    4.3868 H   0  0  0  0  0  0  0  0  0  0  0  0
   27.8710   20.4043    2.4970 H   0  0  0  0  0  0  0  0  0  0  0  0
   28.4227   21.5088    3.7525 H   0  0  0  0  0  0  0  0  0  0  0  0
   26.6948   21.2670    3.5335 H   0  0  0  0  0  0  0  0  0  0  0  0
   23.8757   16.5970    8.0526 H   0  0  0  0  0  0  0  0  0  0  0  0
   23.6692   14.8255    7.8179 H   0  0  0  0  0  0  0  0  0  0  0  0
   25.0775   15.7096    7.2027 H   0  0  0  0  0  0  0  0  0  0  0  0
   21.7551   14.5829    6.7786 H   0  0  0  0  0  0  0  0  0  0  0  0
   19.8199   16.4630    7.2019 H   0  0  0  0  0  0  0  0  0  0  0  0
   22.1279   16.7087    9.1119 H   0  0  0  0  0  0  0  0  0  0  0  0
   20.4323   16.4237    9.4134 H   0  0  0  0  0  0  0  0  0  0  0  0
   21.4534   15.0919    8.8759 H   0  0  0  0  0  0  0  0  0  0  0  0
   20.9725   18.2642    5.9919 H   0  0  0  0  0  0  0  0  0  0  0  0
   22.2649   18.2392    7.2136 H   0  0  0  0  0  0  0  0  0  0  0  0
   20.6250   18.6245    7.6899 H   0  0  0  0  0  0  0  0  0  0  0  0
   17.6942   13.8221    7.7982 H   0  0  0  0  0  0  0  0  0  0  0  0
   19.3385   14.4310    7.9144 H   0  0  0  0  0  0  0  0  0  0  0  0
   18.0460   15.4158    7.1218 H   0  0  0  0  0  0  0  0  0  0  0  0
  1  2  1  0  0  0  0
  1 87  1  0  0  0  0
  1 88  1  0  0  0  0
  1 89  1  0  0  0  0
  2  3  2  0  0  0  0
  2 90  1  0  0  0  0
  3  4  1  0  0  0  0
  3 91  1  0  0  0  0
  4  5  1  0  0  0  0
  4 92  1  0  0  0  0
  4 93  1  0  0  0  0
  5  6  1  0  0  0  0
  5  7  1  0  0  0  0
  5 94  1  0  0  0  0
  6 95  1  0  0  0  0
  6 96  1  0  0  0  0
  6 97  1  0  0  0  0
  7  8  1  0  0  0  0
  7  9  1  0  0  0  0
  7 98  1  0  0  0  0
  8 99  1  0  0  0  0
  9 10  1  0  0  0  0
  9 85  1  0  0  0  0
  9100  1  0  0  0  0
 10 11  2  0  0  0  0
 10 12  1  0  0  0  0
 12 13  1  0  0  0  0
 12101  1  0  0  0  0
 13 14  1  0  0  0  0
 13 16  1  0  0  0  0
 13102  1  0  0  0  0
 14 15  1  0  0  0  0
 14103  1  0  0  0  0
 14104  1  0  0  0  0
 15105  1  0  0  0  0
 15106  1  0  0  0  0
 15107  1  0  0  0  0
 16 17  2  0  0  0  0
 16 18  1  0  0  0  0
 18 19  1  0  0  0  0
 18 20  1  0  0  0  0
 19108  1  0  0  0  0
 19109  1  0  0  0  0
 19110  1  0  0  0  0
 20 21  1  0  0  0  0
 20 22  1  0  0  0  0
 20111  1  0  0  0  0
 21112  1  0  0  0  0
 21113  1  0  0  0  0
 21114  1  0  0  0  0
 22 23  2  0  0  0  0
 22 24  1  0  0  0  0
 24 25  1  0  0  0  0
 24 27  1  0  0  0  0
 25 26  1  0  0  0  0
 25115  1  0  0  0  0
 25116  1  0  0  0  0
 26117  1  0  0  0  0
 26118  1  0  0  0  0
 26119  1  0  0  0  0
 27 28  1  0  0  0  0
 27 31  1  0  0  0  0
 27120  1  0  0  0  0
 28 29  1  0  0  0  0
 28 30  1  0  0  0  0
 28121  1  0  0  0  0
 29122  1  0  0  0  0
 29123  1  0  0  0  0
 29124  1  0  0  0  0
 30125  1  0  0  0  0
 30126  1  0  0  0  0
 30127  1  0  0  0  0
 31 32  2  0  0  0  0
 31 33  1  0  0  0  0
 33 34  1  0  0  0  0
 33128  1  0  0  0  0
 34 35  1  0  0  0  0
 34 38  1  0  0  0  0
 34129  1  0  0  0  0
 35 36  1  0  0  0  0
 35 37  1  0  0  0  0
 35130  1  0  0  0  0
 36131  1  0  0  0  0
 36132  1  0  0  0  0
 36133  1  0  0  0  0
 37134  1  0  0  0  0
 37135  1  0  0  0  0
 37136  1  0  0  0  0
 38 39  2  0  0  0  0
 38 40  1  0  0  0  0
 40 41  1  0  0  0  0
 40 42  1  0  0  0  0
 41137  1  0  0  0  0
 41138  1  0  0  0  0
 41139  1  0  0  0  0
 42 43  1  0  0  0  0
 42 47  1  0  0  0  0
 42140  1  0  0  0  0
 43 44  1  0  0  0  0
 43141  1  0  0  0  0
 43142  1  0  0  0  0
 44 45  1  0  0  0  0
 44 46  1  0  0  0  0
 44143  1  0  0  0  0
 45144  1  0  0  0  0
 45145  1  0  0  0  0
 45146  1  0  0  0  0
 46147  1  0  0  0  0
 46148  1  0  0  0  0
 46149  1  0  0  0  0
 47 48  2  0  0  0  0
 47 49  1  0  0  0  0
 49 50  1  0  0  0  0
 49150  1  0  0  0  0
 50 51  1  0  0  0  0
 50 52  1  0  0  0  0
 50151  1  0  0  0  0
 51152  1  0  0  0  0
 51153  1  0  0  0  0
 51154  1  0  0  0  0
 52 53  2  0  0  0  0
 52 54  1  0  0  0  0
 54 55  1  0  0  0  0
 54155  1  0  0  0  0
 55 56  1  0  0  0  0
 55 57  1  0  0  0  0
 55156  1  0  0  0  0
 56157  1  0  0  0  0
 56158  1  0  0  0  0
 56159  1  0  0  0  0
 57 58  2  0  0  0  0
 57 59  1  0  0  0  0
 59 60  1  0  0  0  0
 59 61  1  0  0  0  0
 60160  1  0  0  0  0
 60161  1  0  0  0  0
 60162  1  0  0  0  0
 61 62  1  0  0  0  0
 61 66  1  0  0  0  0
 61163  1  0  0  0  0
 62 63  1  0  0  0  0
 62164  1  0  0  0  0
 62165  1  0  0  0  0
 63 64  1  0  0  0  0
 63 65  1  0  0  0  0
 63166  1  0  0  0  0
 64167  1  0  0  0  0
 64168  1  0  0  0  0
 64169  1  0  0  0  0
 65170  1  0  0  0  0
 65171  1  0  0  0  0
 65172  1  0  0  0  0
 66 67  2  0  0  0  0
 66 68  1  0  0  0  0
 68 69  1  0  0  0  0
 68 70  1  0  0  0  0
 69173  1  0  0  0  0
 69174  1  0  0  0  0
 69175  1  0  0  0  0
 70 71  1  0  0  0  0
 70 75  1  0  0  0  0
 70176  1  0  0  0  0
 71 72  1  0  0  0  0
 71177  1  0  0  0  0
 71178  1  0  0  0  0
 72 73  1  0  0  0  0
 72 74  1  0  0  0  0
 72179  1  0  0  0  0
 73180  1  0  0  0  0
 73181  1  0  0  0  0
 73182  1  0  0  0  0
 74183  1  0  0  0  0
 74184  1  0  0  0  0
 74185  1  0  0  0  0
 75 76  2  0  0  0  0
 75 77  1  0  0  0  0
 77 78  1  0  0  0  0
 77 79  1  0  0  0  0
 78186  1  0  0  0  0
 78187  1  0  0  0  0
 78188  1  0  0  0  0
 79 80  1  0  0  0  0
 79 83  1  0  0  0  0
 79189  1  0  0  0  0
 80 81  1  0  0  0  0
 80 82  1  0  0  0  0
 80190  1  0  0  0  0
 81191  1  0  0  0  0
 81192  1  0  0  0  0
 81193  1  0  0  0  0
 82194  1  0  0  0  0
 82195  1  0  0  0  0
 82196  1  0  0  0  0
 83 84  2  0  0  0  0
 83 85  1  0  0  0  0
 85 86  1  0  0  0  0
 86197  1  0  0  0  0
 86198  1  0  0  0  0
 86199  1  0  0  0  0
M  END
>  <Energy>
829.971

$$$$