71508287
  -OEChem-03242010103D

 90 95  0     1  0  0  0  0  0999 V2000
   -6.0753   -0.7730   -0.8311 O   0  0  0  0  0  0  0  0  0  0  0  0
    4.1693   -1.6792    0.2238 O   0  0  0  0  0  0  0  0  0  0  0  0
   -7.1563   -0.5272    1.1957 O   0  0  0  0  0  0  0  0  0  0  0  0
    5.1426   -2.9434   -1.4523 O   0  0  0  0  0  0  0  0  0  0  0  0
   11.9740    0.3495   -1.2503 O   0  0  0  0  0  0  0  0  0  0  0  0
    9.4520    3.4283    1.4142 O   0  0  0  0  0  0  0  0  0  0  0  0
   11.8428    2.6879    0.2280 O   0  0  0  0  0  0  0  0  0  0  0  0
   -1.2146   -3.3408    0.4207 N   0  0  1  0  0  0  0  0  0  0  0  0
   -2.2771   -2.5206   -0.1598 C   0  0  0  0  0  0  0  0  0  0  0  0
    0.0418   -2.5937    0.4645 C   0  0  0  0  0  0  0  0  0  0  0  0
   -2.7877   -1.4979    0.8631 C   0  0  0  0  0  0  0  0  0  0  0  0
   -3.4139   -3.4212   -0.6573 C   0  0  0  0  0  0  0  0  0  0  0  0
    0.9884   -3.2307    1.4887 C   0  0  0  0  0  0  0  0  0  0  0  0
    0.6855   -2.5407   -0.9269 C   0  0  0  0  0  0  0  0  0  0  0  0
   -4.5687   -2.5964   -1.2198 C   0  0  0  0  0  0  0  0  0  0  0  0
   -3.9448   -0.6780    0.2979 C   0  0  0  0  0  0  0  0  0  0  0  0
   -5.0761   -1.5722   -0.2073 C   0  0  0  0  0  0  0  0  0  0  0  0
    2.3342   -2.5112    1.5221 C   0  0  0  0  0  0  0  0  0  0  0  0
    2.0327   -1.8239   -0.8881 C   0  0  0  0  0  0  0  0  0  0  0  0
    2.9758   -2.4501    0.1378 C   0  0  0  0  0  0  0  0  0  0  0  0
   -1.5896   -3.7891    1.7614 C   0  0  0  0  0  0  0  0  0  0  0  0
   -7.0595   -0.3158   -0.0056 C   0  0  0  0  0  0  0  0  0  0  0  0
   -8.0299    0.5008   -0.7911 C   0  0  0  0  0  0  0  0  0  0  0  0
   -9.4149    0.4884   -0.1677 C   0  0  0  0  0  0  0  0  0  0  0  0
   -7.6905    1.9806   -0.7597 C   0  0  0  0  0  0  0  0  0  0  0  0
    5.1678   -2.0390   -0.6311 C   0  0  0  0  0  0  0  0  0  0  0  0
   -8.7546    2.7181   -0.1923 C   0  0  0  0  0  0  0  0  0  0  0  0
   -9.8140    1.8014    0.1714 C   0  0  0  0  0  0  0  0  0  0  0  0
  -10.2437   -0.5981    0.0601 C   0  0  0  0  0  0  0  0  0  0  0  0
   -6.5406    2.6070   -1.2117 C   0  0  0  0  0  0  0  0  0  0  0  0
   -8.6685    4.0949   -0.0653 C   0  0  0  0  0  0  0  0  0  0  0  0
  -11.0500    2.0341    0.7518 C   0  0  0  0  0  0  0  0  0  0  0  0
    6.3357   -1.2112   -0.4796 C   0  0  0  0  0  0  0  0  0  0  0  0
   -6.4545    3.9945   -1.0832 C   0  0  0  0  0  0  0  0  0  0  0  0
  -11.4890   -0.3627    0.6453 C   0  0  0  0  0  0  0  0  0  0  0  0
   -7.5074    4.7308   -0.5149 C   0  0  0  0  0  0  0  0  0  0  0  0
  -11.8879    0.9402    0.9883 C   0  0  0  0  0  0  0  0  0  0  0  0
    7.3107   -0.5212   -0.3542 C   0  0  0  0  0  0  0  0  0  0  0  0
    8.4717    0.3012   -0.2047 C   0  0  0  0  0  0  0  0  0  0  0  0
    8.4016    1.4791    0.5390 C   0  0  0  0  0  0  0  0  0  0  0  0
    9.6740   -0.0746   -0.8038 C   0  0  0  0  0  0  0  0  0  0  0  0
   10.8061    0.7273   -0.6591 C   0  0  0  0  0  0  0  0  0  0  0  0
    9.5336    2.2811    0.6839 C   0  0  0  0  0  0  0  0  0  0  0  0
   10.7358    1.9053    0.0847 C   0  0  0  0  0  0  0  0  0  0  0  0
   12.8518   -0.4725   -0.4836 C   0  0  0  0  0  0  0  0  0  0  0  0
    9.7339    3.3298    2.8089 C   0  0  0  0  0  0  0  0  0  0  0  0
   12.0477    3.7041   -0.7510 C   0  0  0  0  0  0  0  0  0  0  0  0
   -1.9215   -1.9745   -1.0407 H   0  0  0  0  0  0  0  0  0  0  0  0
   -0.1145   -1.5613    0.8005 H   0  0  0  0  0  0  0  0  0  0  0  0
   -3.8168   -4.0596    0.1361 H   0  0  0  0  0  0  0  0  0  0  0  0
   -3.0413   -4.0943   -1.4398 H   0  0  0  0  0  0  0  0  0  0  0  0
   -2.0054   -0.7999    1.1774 H   0  0  0  0  0  0  0  0  0  0  0  0
   -3.1854   -1.9670    1.7699 H   0  0  0  0  0  0  0  0  0  0  0  0
    1.1654   -4.2877    1.2480 H   0  0  0  0  0  0  0  0  0  0  0  0
    0.6127   -3.1773    2.5159 H   0  0  0  0  0  0  0  0  0  0  0  0
    0.0524   -2.0213   -1.6531 H   0  0  0  0  0  0  0  0  0  0  0  0
    0.8337   -3.5592   -1.3098 H   0  0  0  0  0  0  0  0  0  0  0  0
   -4.2493   -2.0838   -2.1368 H   0  0  0  0  0  0  0  0  0  0  0  0
   -5.3903   -3.2569   -1.5225 H   0  0  0  0  0  0  0  0  0  0  0  0
   -4.3233    0.0100    1.0635 H   0  0  0  0  0  0  0  0  0  0  0  0
   -3.5856   -0.0394   -0.5198 H   0  0  0  0  0  0  0  0  0  0  0  0
   -5.5010   -2.1332    0.6364 H   0  0  0  0  0  0  0  0  0  0  0  0
    3.0131   -3.0151    2.2210 H   0  0  0  0  0  0  0  0  0  0  0  0
    2.2059   -1.4942    1.9160 H   0  0  0  0  0  0  0  0  0  0  0  0
    2.4929   -1.8460   -1.8832 H   0  0  0  0  0  0  0  0  0  0  0  0
    1.8843   -0.7615   -0.6543 H   0  0  0  0  0  0  0  0  0  0  0  0
    3.2048   -3.4821   -0.1616 H   0  0  0  0  0  0  0  0  0  0  0  0
   -1.5134   -3.0213    2.5410 H   0  0  0  0  0  0  0  0  0  0  0  0
   -0.9783   -4.6485    2.0636 H   0  0  0  0  0  0  0  0  0  0  0  0
   -2.6058   -4.1951    1.8035 H   0  0  0  0  0  0  0  0  0  0  0  0
   -8.1108    0.1464   -1.8252 H   0  0  0  0  0  0  0  0  0  0  0  0
   -5.7267    2.0431   -1.6538 H   0  0  0  0  0  0  0  0  0  0  0  0
   -9.9399   -1.6044   -0.2062 H   0  0  0  0  0  0  0  0  0  0  0  0
  -11.3734    3.0343    1.0199 H   0  0  0  0  0  0  0  0  0  0  0  0
   -9.4741    4.6777    0.3687 H   0  0  0  0  0  0  0  0  0  0  0  0
  -12.1598   -1.1959    0.8376 H   0  0  0  0  0  0  0  0  0  0  0  0
   -5.5634    4.5128   -1.4274 H   0  0  0  0  0  0  0  0  0  0  0  0
  -12.8627    1.0986    1.4425 H   0  0  0  0  0  0  0  0  0  0  0  0
   -7.4175    5.8104   -0.4259 H   0  0  0  0  0  0  0  0  0  0  0  0
    7.4675    1.7798    1.0090 H   0  0  0  0  0  0  0  0  0  0  0  0
    9.7370   -0.9913   -1.3865 H   0  0  0  0  0  0  0  0  0  0  0  0
   13.7397   -0.6812   -1.0867 H   0  0  0  0  0  0  0  0  0  0  0  0
   12.3673   -1.4217   -0.2335 H   0  0  0  0  0  0  0  0  0  0  0  0
   13.1629    0.0431    0.4304 H   0  0  0  0  0  0  0  0  0  0  0  0
    9.6357    4.3257    3.2493 H   0  0  0  0  0  0  0  0  0  0  0  0
   10.7563    2.9744    2.9715 H   0  0  0  0  0  0  0  0  0  0  0  0
    9.0204    2.6588    3.2977 H   0  0  0  0  0  0  0  0  0  0  0  0
   12.9674    4.2399   -0.5008 H   0  0  0  0  0  0  0  0  0  0  0  0
   11.2163    4.4161   -0.7472 H   0  0  0  0  0  0  0  0  0  0  0  0
   12.1599    3.2631   -1.7465 H   0  0  0  0  0  0  0  0  0  0  0  0
  1 17  1  0  0  0  0
  1 22  1  0  0  0  0
  2 20  1  0  0  0  0
  2 26  1  0  0  0  0
  3 22  2  0  0  0  0
  4 26  2  0  0  0  0
  5 42  1  0  0  0  0
  5 45  1  0  0  0  0
  6 43  1  0  0  0  0
  6 46  1  0  0  0  0
  7 44  1  0  0  0  0
  7 47  1  0  0  0  0
  8  9  1  0  0  0  0
  8 10  1  0  0  0  0
  8 21  1  0  0  0  0
  9 11  1  0  0  0  0
  9 12  1  0  0  0  0
  9 48  1  0  0  0  0
 10 13  1  0  0  0  0
 10 14  1  0  0  0  0
 10 49  1  0  0  0  0
 11 16  1  0  0  0  0
 11 52  1  0  0  0  0
 11 53  1  0  0  0  0
 12 15  1  0  0  0  0
 12 50  1  0  0  0  0
 12 51  1  0  0  0  0
 13 18  1  0  0  0  0
 13 54  1  0  0  0  0
 13 55  1  0  0  0  0
 14 19  1  0  0  0  0
 14 56  1  0  0  0  0
 14 57  1  0  0  0  0
 15 17  1  0  0  0  0
 15 58  1  0  0  0  0
 15 59  1  0  0  0  0
 16 17  1  0  0  0  0
 16 60  1  0  0  0  0
 16 61  1  0  0  0  0
 17 62  1  0  0  0  0
 18 20  1  0  0  0  0
 18 63  1  0  0  0  0
 18 64  1  0  0  0  0
 19 20  1  0  0  0  0
 19 65  1  0  0  0  0
 19 66  1  0  0  0  0
 20 67  1  0  0  0  0
 21 68  1  0  0  0  0
 21 69  1  0  0  0  0
 21 70  1  0  0  0  0
 22 23  1  0  0  0  0
 23 24  1  0  0  0  0
 23 25  1  0  0  0  0
 23 71  1  0  0  0  0
 24 28  1  0  0  0  0
 24 29  2  0  0  0  0
 25 27  1  0  0  0  0
 25 30  2  0  0  0  0
 26 33  1  0  0  0  0
 27 28  1  0  0  0  0
 27 31  2  0  0  0  0
 28 32  2  0  0  0  0
 29 35  1  0  0  0  0
 29 73  1  0  0  0  0
 30 34  1  0  0  0  0
 30 72  1  0  0  0  0
 31 36  1  0  0  0  0
 31 75  1  0  0  0  0
 32 37  1  0  0  0  0
 32 74  1  0  0  0  0
 33 38  3  0  0  0  0
 34 36  2  0  0  0  0
 34 77  1  0  0  0  0
 35 37  2  0  0  0  0
 35 76  1  0  0  0  0
 36 79  1  0  0  0  0
 37 78  1  0  0  0  0
 38 39  1  0  0  0  0
 39 40  2  0  0  0  0
 39 41  1  0  0  0  0
 40 43  1  0  0  0  0
 40 80  1  0  0  0  0
 41 42  2  0  0  0  0
 41 81  1  0  0  0  0
 42 44  1  0  0  0  0
 43 44  2  0  0  0  0
 45 82  1  0  0  0  0
 45 83  1  0  0  0  0
 45 84  1  0  0  0  0
 46 85  1  0  0  0  0
 46 86  1  0  0  0  0
 46 87  1  0  0  0  0
 47 88  1  0  0  0  0
 47 89  1  0  0  0  0
 47 90  1  0  0  0  0
M  END
> <PUBCHEM_COMPOUND_CID>
71508287

> <PUBCHEM_CONFORMER_RMSD>
1.2

> <PUBCHEM_CONFORMER_DIVERSEORDER>
1
76
72
95
33
22
58
50
25
61
24
55
56
32
84
92
79
94
86
101
46
98
37
68
47
77
103
99
17
70
44
2
106
26
69
29
40
85
36
83
41
100
63
71
45
89
105
28
96
12
42
39
27
88
16
64
65
13
18
15
104
102
91
52
21
59
30
7
73
35
38
75
20
81
23
43
31
78
49
54
74
8
60
90
80
53
51
57
9
67
82
87
10
93
4
48
66
6
5
62
19
3
11
97
34
14

> <PUBCHEM_MMFF94_PARTIAL_CHARGES>
47
1 -0.43
10 0.27
17 0.28
2 -0.43
20 0.28
21 0.27
22 0.66
23 0.35
24 -0.14
25 -0.14
26 0.83
29 -0.15
3 -0.57
30 -0.15
31 -0.15
32 -0.15
33 -0.1
34 -0.15
35 -0.15
36 -0.15
37 -0.15
38 -0.07
39 0.07
4 -0.57
40 -0.15
41 -0.15
42 0.08
43 0.08
44 0.08
45 0.28
46 0.28
47 0.28
5 -0.36
6 -0.36
7 -0.36
72 0.15
73 0.15
74 0.15
75 0.15
76 0.15
77 0.15
78 0.15
79 0.15
8 -0.81
80 0.15
81 0.15
9 0.27

> <PUBCHEM_EFFECTIVE_ROTOR_COUNT>
12.6

> <PUBCHEM_PHARMACOPHORE_FEATURES>
12
1 3 acceptor
1 4 acceptor
1 5 acceptor
1 6 acceptor
1 7 acceptor
1 8 cation
5 23 24 25 27 28 rings
6 10 13 14 18 19 20 rings
6 24 28 29 32 35 37 rings
6 25 27 30 31 34 36 rings
6 39 40 41 42 43 44 rings
6 9 11 12 15 16 17 rings

> <PUBCHEM_HEAVY_ATOM_COUNT>
47

> <PUBCHEM_ATOM_DEF_STEREO_COUNT>
0

> <PUBCHEM_ATOM_UDEF_STEREO_COUNT>
0

> <PUBCHEM_BOND_DEF_STEREO_COUNT>
0

> <PUBCHEM_BOND_UDEF_STEREO_COUNT>
0

> <PUBCHEM_ISOTOPIC_ATOM_COUNT>
0

> <PUBCHEM_COMPONENT_COUNT>
1

> <PUBCHEM_CACTVS_TAUTO_COUNT>
1

> <PUBCHEM_CONFORMER_ID>
0443213F00000001

> <PUBCHEM_MMFF94_ENERGY>
152.8161

> <PUBCHEM_FEATURE_SELFOVERLAP>
61.073

> <PUBCHEM_SHAPE_FINGERPRINT>
10533779 47 16009020667528492714
10952577 141 18201999924178066087
11061554 47 18334576811124029133
11578821 258 18412823586121768076
11672396 167 9367344838497322131
12539745 222 10737278044327605351
13947947 74 18408604759889414400
14201967 126 18408040693709603613
15247644 1 8934705697056262377
15530121 191 18200026382647508904
15604295 49 18411134732208844349
20105231 36 9367351427372410062
20501277 180 18413387618749287658
21102433 48 10953745517100034489
212700 22 8862937269015258884
44389302 135 11241965967054810609
4760202 170 17703226330630376912
6673363 416 18412543228886002911
9937071 3 10953456341373334750

> <PUBCHEM_SHAPE_MULTIPOLES>
921.17
61.04
5.95
1.4
86.05
3.11
0.61
69.62
0.9
-1.35
0.57
1.86
0.14
3.97

> <PUBCHEM_SHAPE_SELFOVERLAP>
1990.997

> <PUBCHEM_SHAPE_VOLUME>
504.8

> <PUBCHEM_COORDINATE_TYPE>
2
5
10

$$$$