18
 OpenBabel03292022253D

108111  0  0  1  0  0  0  0  0999 V2000
    8.0599    8.5210   13.8198 C   0  0  0  0  0  0  0  0  0  0  0  0
    8.3816    8.1924   12.4681 O   0  0  0  0  0  0  0  0  0  0  0  0
    7.4446    7.4535   11.7973 C   0  0  0  0  0  0  0  0  0  0  0  0
    6.0750    7.6348   12.0286 C   0  0  0  0  0  0  0  0  0  0  0  0
    5.1170    6.8411   11.3894 C   0  0  0  0  0  0  0  0  0  0  0  0
    5.4945    5.8621   10.4596 C   0  0  0  0  0  0  0  0  0  0  0  0
    4.4662    4.9371    9.7564 C   0  0  3  0  0  0  0  0  0  0  0  0
    3.0645    5.1827   10.2102 C   0  0  0  0  0  0  0  0  0  0  0  0
    1.9772    5.3825   10.5591 N   0  0  0  0  0  0  0  0  0  0  0  0
    4.5169    5.2043    8.2153 C   0  0  0  0  0  0  0  0  0  0  0  0
    4.2540    6.6554    7.7817 C   0  0  0  0  0  0  0  0  0  0  0  0
    4.3382    6.7629    6.2742 C   0  0  0  0  0  0  0  0  0  0  0  0
    3.7037    6.0567    5.5054 O   0  0  0  0  0  0  0  0  0  0  0  0
    5.2182    7.7367    5.9048 O   0  0  0  0  0  0  0  0  0  0  0  0
    5.3807    7.9129    4.4847 C   0  0  1  0  0  0  0  0  0  0  0  0
    4.2835    8.8312    3.9458 C   0  0  0  0  0  0  0  0  0  0  0  0
    4.4495    9.0640    2.4466 C   0  0  0  0  0  0  0  0  0  0  0  0
    5.8376    9.6410    2.0930 C   0  0  2  0  0  0  0  0  0  0  0  0
    6.0500    9.8844    0.6334 N   0  0  0  0  0  0  0  0  0  0  0  0
    5.9067    8.6414   -0.1450 C   0  0  0  0  0  0  0  0  0  0  0  0
    5.1912   10.9684    0.0562 C   0  0  1  0  0  0  0  0  0  0  0  0
    5.2992   12.3076    0.8191 C   0  0  0  0  0  0  0  0  0  0  0  0
    4.3252   13.3417    0.2560 C   0  0  0  0  0  0  0  0  0  0  0  0
    4.5941   13.6552   -1.2125 C   0  0  2  0  0  0  0  0  0  0  0  0
    3.5040   14.4474   -1.7383 O   0  0  0  0  0  0  0  0  0  0  0  0
    3.4856   15.7596   -1.3992 C   0  0  0  0  0  0  0  0  0  0  0  0
    4.3251   16.3439   -0.7316 O   0  0  0  0  0  0  0  0  0  0  0  0
    2.3197   16.4620   -1.9800 C   0  0  0  0  0  0  0  0  0  0  0  0
    1.2951   15.8536   -2.5974 C   0  0  0  0  0  0  0  0  0  0  0  0
    0.2761   16.6242   -3.3156 C   0  0  0  0  0  0  0  0  0  0  0  0
    0.5364   16.9565   -4.6453 C   0  0  0  0  0  0  0  0  0  0  0  0
   -0.3884   17.6876   -5.3929 C   0  0  0  0  0  0  0  0  0  0  0  0
   -0.1831   18.0211   -6.7120 O   0  0  0  0  0  0  0  0  0  0  0  0
    0.7398   17.2043   -7.4266 C   0  0  0  0  0  0  0  0  0  0  0  0
   -1.5847   18.1333   -4.7914 C   0  0  0  0  0  0  0  0  0  0  0  0
   -2.3668   18.9392   -5.5886 O   0  0  0  0  0  0  0  0  0  0  0  0
   -3.7772   18.8180   -5.4643 C   0  0  0  0  0  0  0  0  0  0  0  0
   -1.8503   17.8097   -3.4417 C   0  0  0  0  0  0  0  0  0  0  0  0
   -3.0045   18.3021   -2.8905 O   0  0  0  0  0  0  0  0  0  0  0  0
   -3.3147   17.9693   -1.5453 C   0  0  0  0  0  0  0  0  0  0  0  0
   -0.9173   17.0427   -2.7192 C   0  0  0  0  0  0  0  0  0  0  0  0
    4.6547   12.3687   -2.0409 C   0  0  0  0  0  0  0  0  0  0  0  0
    5.5303   11.2694   -1.4315 C   0  0  0  0  0  0  0  0  0  0  0  0
    6.9714    8.7884    2.7222 C   0  0  0  0  0  0  0  0  0  0  0  0
    6.7511    8.5388    4.2188 C   0  0  0  0  0  0  0  0  0  0  0  0
    4.8230    3.4157   10.0550 C   0  0  0  0  0  0  0  0  0  0  0  0
    4.8253    3.0665   11.5548 C   0  0  0  0  0  0  0  0  0  0  0  0
    3.9142    2.4023    9.3333 C   0  0  0  0  0  0  0  0  0  0  0  0
    6.8704    5.7508   10.1755 C   0  0  0  0  0  0  0  0  0  0  0  0
    7.8472    6.5243   10.8312 C   0  0  0  0  0  0  0  0  0  0  0  0
    9.1121    6.2160   10.4052 O   0  0  0  0  0  0  0  0  0  0  0  0
   10.2256    6.7929   11.0695 C   0  0  0  0  0  0  0  0  0  0  0  0
    8.9827    8.4765   14.4059 H   0  0  0  0  0  0  0  0  0  0  0  0
    7.3518    7.8243   14.2836 H   0  0  0  0  0  0  0  0  0  0  0  0
    7.6722    9.5433   13.8645 H   0  0  0  0  0  0  0  0  0  0  0  0
    5.7224    8.3986   12.7171 H   0  0  0  0  0  0  0  0  0  0  0  0
    4.0750    7.0161   11.6506 H   0  0  0  0  0  0  0  0  0  0  0  0
    3.7698    4.5760    7.7102 H   0  0  0  0  0  0  0  0  0  0  0  0
    5.4887    4.8903    7.8108 H   0  0  0  0  0  0  0  0  0  0  0  0
    4.9782    7.3391    8.2320 H   0  0  0  0  0  0  0  0  0  0  0  0
    3.2533    6.9917    8.0780 H   0  0  0  0  0  0  0  0  0  0  0  0
    5.3462    6.9372    3.9809 H   0  0  0  0  0  0  0  0  0  0  0  0
    4.3027    9.7888    4.4820 H   0  0  0  0  0  0  0  0  0  0  0  0
    3.2955    8.4009    4.1434 H   0  0  0  0  0  0  0  0  0  0  0  0
    3.6561    9.7412    2.1127 H   0  0  0  0  0  0  0  0  0  0  0  0
    4.2910    8.1055    1.9385 H   0  0  0  0  0  0  0  0  0  0  0  0
    5.9365   10.5978    2.6157 H   0  0  0  0  0  0  0  0  0  0  0  0
    6.4863    7.8153    0.2737 H   0  0  0  0  0  0  0  0  0  0  0  0
    6.3025    8.7561   -1.1590 H   0  0  0  0  0  0  0  0  0  0  0  0
    4.8623    8.3184   -0.2214 H   0  0  0  0  0  0  0  0  0  0  0  0
    4.1439   10.6391    0.0928 H   0  0  0  0  0  0  0  0  0  0  0  0
    6.3241   12.6947    0.7614 H   0  0  0  0  0  0  0  0  0  0  0  0
    5.0483   12.2011    1.8754 H   0  0  0  0  0  0  0  0  0  0  0  0
    4.3870   14.2592    0.8539 H   0  0  0  0  0  0  0  0  0  0  0  0
    3.2964   12.9821    0.3732 H   0  0  0  0  0  0  0  0  0  0  0  0
    5.5417   14.1975   -1.3283 H   0  0  0  0  0  0  0  0  0  0  0  0
    2.3724   17.5434   -1.8979 H   0  0  0  0  0  0  0  0  0  0  0  0
    1.2347   14.7736   -2.6978 H   0  0  0  0  0  0  0  0  0  0  0  0
    1.4822   16.6456   -5.0774 H   0  0  0  0  0  0  0  0  0  0  0  0
    0.6490   17.4393   -8.4909 H   0  0  0  0  0  0  0  0  0  0  0  0
    0.5137   16.1393   -7.3003 H   0  0  0  0  0  0  0  0  0  0  0  0
    1.7696   17.4242   -7.1263 H   0  0  0  0  0  0  0  0  0  0  0  0
   -4.2259   19.2900   -6.3450 H   0  0  0  0  0  0  0  0  0  0  0  0
   -4.1523   19.3701   -4.5987 H   0  0  0  0  0  0  0  0  0  0  0  0
   -4.0988   17.7716   -5.4478 H   0  0  0  0  0  0  0  0  0  0  0  0
   -4.2552   18.4685   -1.2886 H   0  0  0  0  0  0  0  0  0  0  0  0
   -2.5484   18.3375   -0.8568 H   0  0  0  0  0  0  0  0  0  0  0  0
   -3.4694   16.8914   -1.4338 H   0  0  0  0  0  0  0  0  0  0  0  0
   -1.0906   16.7777   -1.6816 H   0  0  0  0  0  0  0  0  0  0  0  0
    5.0199   12.6089   -3.0480 H   0  0  0  0  0  0  0  0  0  0  0  0
    3.6397   11.9800   -2.1882 H   0  0  0  0  0  0  0  0  0  0  0  0
    6.5868   11.5536   -1.5202 H   0  0  0  0  0  0  0  0  0  0  0  0
    5.3864   10.3817   -2.0555 H   0  0  0  0  0  0  0  0  0  0  0  0
    7.9336    9.2953    2.5831 H   0  0  0  0  0  0  0  0  0  0  0  0
    7.0551    7.8107    2.2371 H   0  0  0  0  0  0  0  0  0  0  0  0
    6.8492    9.4787    4.7775 H   0  0  0  0  0  0  0  0  0  0  0  0
    7.5385    7.8808    4.6064 H   0  0  0  0  0  0  0  0  0  0  0  0
    5.8382    3.2218    9.6873 H   0  0  0  0  0  0  0  0  0  0  0  0
    3.8233    3.1390   11.9898 H   0  0  0  0  0  0  0  0  0  0  0  0
    5.4967    3.7131   12.1270 H   0  0  0  0  0  0  0  0  0  0  0  0
    5.1726    2.0371   11.7030 H   0  0  0  0  0  0  0  0  0  0  0  0
    2.8656    2.5142    9.6258 H   0  0  0  0  0  0  0  0  0  0  0  0
    4.2141    1.3772    9.5790 H   0  0  0  0  0  0  0  0  0  0  0  0
    3.9835    2.4958    8.2464 H   0  0  0  0  0  0  0  0  0  0  0  0
    7.2211    5.0322    9.4358 H   0  0  0  0  0  0  0  0  0  0  0  0
   11.1254    6.3026   10.6829 H   0  0  0  0  0  0  0  0  0  0  0  0
   10.2003    6.6023   12.1466 H   0  0  0  0  0  0  0  0  0  0  0  0
   10.3110    7.8596   10.8409 H   0  0  0  0  0  0  0  0  0  0  0  0
  1  2  1  0  0  0  0
  1 53  1  0  0  0  0
  1 54  1  0  0  0  0
  1 55  1  0  0  0  0
  2  3  1  0  0  0  0
  3  4  1  0  0  0  0
  3 50  2  0  0  0  0
  4  5  2  0  0  0  0
  4 56  1  0  0  0  0
  5  6  1  0  0  0  0
  5 57  1  0  0  0  0
  6  7  1  0  0  0  0
  6 49  2  0  0  0  0
  7  8  1  0  0  0  0
  7 10  1  0  0  0  0
  7 46  1  0  0  0  0
  8  9  3  0  0  0  0
 10 11  1  0  0  0  0
 10 58  1  0  0  0  0
 10 59  1  0  0  0  0
 11 12  1  0  0  0  0
 11 60  1  0  0  0  0
 11 61  1  0  0  0  0
 12 13  2  0  0  0  0
 12 14  1  0  0  0  0
 15 16  1  0  0  0  0
 15 45  1  0  0  0  0
 15 14  1  0  0  0  0
 15 62  1  6  0  0  0
 16 17  1  0  0  0  0
 16 63  1  0  0  0  0
 16 64  1  0  0  0  0
 17 18  1  0  0  0  0
 17 65  1  0  0  0  0
 17 66  1  0  0  0  0
 18 44  1  0  0  0  0
 18 19  1  0  0  0  0
 18 67  1  1  0  0  0
 19 20  1  0  0  0  0
 20 68  1  0  0  0  0
 20 69  1  0  0  0  0
 20 70  1  0  0  0  0
 21 22  1  0  0  0  0
 21 43  1  0  0  0  0
 21 19  1  0  0  0  0
 21 71  1  1  0  0  0
 22 23  1  0  0  0  0
 22 72  1  0  0  0  0
 22 73  1  0  0  0  0
 23 24  1  0  0  0  0
 23 74  1  0  0  0  0
 23 75  1  0  0  0  0
 24 42  1  0  0  0  0
 24 25  1  0  0  0  0
 24 76  1  6  0  0  0
 25 26  1  0  0  0  0
 26 27  2  0  0  0  0
 26 28  1  0  0  0  0
 28 29  2  0  0  0  0
 28 77  1  0  0  0  0
 29 30  1  0  0  0  0
 29 78  1  0  0  0  0
 30 31  1  0  0  0  0
 30 41  2  0  0  0  0
 31 32  2  0  0  0  0
 31 79  1  0  0  0  0
 32 33  1  0  0  0  0
 32 35  1  0  0  0  0
 33 34  1  0  0  0  0
 34 80  1  0  0  0  0
 34 81  1  0  0  0  0
 34 82  1  0  0  0  0
 35 36  1  0  0  0  0
 35 38  2  0  0  0  0
 36 37  1  0  0  0  0
 37 83  1  0  0  0  0
 37 84  1  0  0  0  0
 37 85  1  0  0  0  0
 38 39  1  0  0  0  0
 38 41  1  0  0  0  0
 39 40  1  0  0  0  0
 40 86  1  0  0  0  0
 40 87  1  0  0  0  0
 40 88  1  0  0  0  0
 41 89  1  0  0  0  0
 42 43  1  0  0  0  0
 42 90  1  0  0  0  0
 42 91  1  0  0  0  0
 43 92  1  0  0  0  0
 43 93  1  0  0  0  0
 44 45  1  0  0  0  0
 44 94  1  0  0  0  0
 44 95  1  0  0  0  0
 45 96  1  0  0  0  0
 45 97  1  0  0  0  0
 46 47  1  0  0  0  0
 46 48  1  0  0  0  0
 46 98  1  0  0  0  0
 47 99  1  0  0  0  0
 47100  1  0  0  0  0
 47101  1  0  0  0  0
 48102  1  0  0  0  0
 48103  1  0  0  0  0
 48104  1  0  0  0  0
 49 50  1  0  0  0  0
 49105  1  0  0  0  0
 50 51  1  0  0  0  0
 51 52  1  0  0  0  0
 52106  1  0  0  0  0
 52107  1  0  0  0  0
 52108  1  0  0  0  0
M  END
>  <Energy>
140.645

$$$$