10577412
  -OEChem-03242010103D

 69 72  0     1  0  0  0  0  0999 V2000
    2.2360    2.4012    2.2210 O   0  0  0  0  0  0  0  0  0  0  0  0
    4.2498    3.7644    0.8745 O   0  0  0  0  0  0  0  0  0  0  0  0
   -0.9648   -0.6775   -1.4998 N   0  0  0  0  0  0  0  0  0  0  0  0
    4.8003   -2.6928   -2.2003 N   0  0  0  0  0  0  0  0  0  0  0  0
    3.2069   -1.7093   -0.3215 C   0  0  1  0  0  0  0  0  0  0  0  0
    3.4032   -2.5744    0.9954 C   0  0  0  0  0  0  0  0  0  0  0  0
    1.7349   -1.8638   -0.8484 C   0  0  0  0  0  0  0  0  0  0  0  0
    1.4047   -1.0539   -2.1197 C   0  0  0  0  0  0  0  0  0  0  0  0
    3.4871   -0.2234    0.0055 C   0  0  0  0  0  0  0  0  0  0  0  0
    4.8231   -2.5153    1.5852 C   0  0  0  0  0  0  0  0  0  0  0  0
    3.0134   -4.0537    0.8139 C   0  0  0  0  0  0  0  0  0  0  0  0
   -0.0649   -1.1737   -2.5339 C   0  0  0  0  0  0  0  0  0  0  0  0
    4.1060   -2.2535   -1.3800 C   0  0  0  0  0  0  0  0  0  0  0  0
    2.7295    0.4322    0.9760 C   0  0  0  0  0  0  0  0  0  0  0  0
    4.4976    0.4607   -0.6702 C   0  0  0  0  0  0  0  0  0  0  0  0
   -2.3536   -0.7846   -1.9245 C   0  0  0  0  0  0  0  0  0  0  0  0
   -3.3032   -0.2856   -0.8682 C   0  0  0  0  0  0  0  0  0  0  0  0
    2.9825    1.7719    1.2710 C   0  0  0  0  0  0  0  0  0  0  0  0
    4.7504    1.8004   -0.3754 C   0  0  0  0  0  0  0  0  0  0  0  0
    3.9929    2.4560    0.5954 C   0  0  0  0  0  0  0  0  0  0  0  0
   -3.6775    1.0686   -0.8642 C   0  0  0  0  0  0  0  0  0  0  0  0
   -3.7968   -1.1839    0.0925 C   0  0  0  0  0  0  0  0  0  0  0  0
   -4.5685    1.5365    0.1263 C   0  0  0  0  0  0  0  0  0  0  0  0
   -4.6880   -0.7160    1.0830 C   0  0  0  0  0  0  0  0  0  0  0  0
   -5.0622    0.6381    1.0871 C   0  0  0  0  0  0  0  0  0  0  0  0
   -3.1843    1.9676   -1.8245 C   0  0  0  0  0  0  0  0  0  0  0  0
   -3.4230   -2.5381    0.0892 C   0  0  0  0  0  0  0  0  0  0  0  0
   -4.9421    2.8907    0.1298 C   0  0  0  0  0  0  0  0  0  0  0  0
   -5.1812   -1.6150    2.0433 C   0  0  0  0  0  0  0  0  0  0  0  0
   -3.5655    3.3094   -1.8072 C   0  0  0  0  0  0  0  0  0  0  0  0
   -3.9220   -3.4177    1.0502 C   0  0  0  0  0  0  0  0  0  0  0  0
   -4.4432    3.7705   -0.8311 C   0  0  0  0  0  0  0  0  0  0  0  0
   -4.7999   -2.9567    2.0260 C   0  0  0  0  0  0  0  0  0  0  0  0
    1.2230    1.6308    2.8648 C   0  0  0  0  0  0  0  0  0  0  0  0
    5.2994    4.3901    0.1389 C   0  0  0  0  0  0  0  0  0  0  0  0
    2.7309   -2.1886    1.7731 H   0  0  0  0  0  0  0  0  0  0  0  0
    1.5340   -2.9143   -1.0942 H   0  0  0  0  0  0  0  0  0  0  0  0
    1.0334   -1.5995   -0.0482 H   0  0  0  0  0  0  0  0  0  0  0  0
    1.6386    0.0062   -1.9687 H   0  0  0  0  0  0  0  0  0  0  0  0
    2.0262   -1.3993   -2.9540 H   0  0  0  0  0  0  0  0  0  0  0  0
    5.1231   -1.4885    1.8141 H   0  0  0  0  0  0  0  0  0  0  0  0
    4.8734   -3.0801    2.5229 H   0  0  0  0  0  0  0  0  0  0  0  0
    5.5634   -2.9440    0.9021 H   0  0  0  0  0  0  0  0  0  0  0  0
    3.2065   -4.6149    1.7356 H   0  0  0  0  0  0  0  0  0  0  0  0
    1.9465   -4.1686    0.6031 H   0  0  0  0  0  0  0  0  0  0  0  0
    3.5828   -4.5359    0.0136 H   0  0  0  0  0  0  0  0  0  0  0  0
   -0.2851   -2.2260   -2.7507 H   0  0  0  0  0  0  0  0  0  0  0  0
   -0.2080   -0.6074   -3.4623 H   0  0  0  0  0  0  0  0  0  0  0  0
    1.9497   -0.1342    1.4697 H   0  0  0  0  0  0  0  0  0  0  0  0
    5.1151   -0.0015   -1.4327 H   0  0  0  0  0  0  0  0  0  0  0  0
   -0.7381    0.2956   -1.2958 H   0  0  0  0  0  0  0  0  0  0  0  0
   -2.5928   -1.8137   -2.2142 H   0  0  0  0  0  0  0  0  0  0  0  0
   -2.5129   -0.2652   -2.8762 H   0  0  0  0  0  0  0  0  0  0  0  0
    5.5500    2.2685   -0.9393 H   0  0  0  0  0  0  0  0  0  0  0  0
   -5.7501    0.9993    1.8517 H   0  0  0  0  0  0  0  0  0  0  0  0
   -2.4781    1.6912   -2.5999 H   0  0  0  0  0  0  0  0  0  0  0  0
   -2.7234   -2.9671   -0.6199 H   0  0  0  0  0  0  0  0  0  0  0  0
   -5.6269    3.2731    0.8839 H   0  0  0  0  0  0  0  0  0  0  0  0
   -5.8685   -1.2763    2.8157 H   0  0  0  0  0  0  0  0  0  0  0  0
   -3.1726    3.9958   -2.5516 H   0  0  0  0  0  0  0  0  0  0  0  0
   -3.6204   -4.4612    1.0407 H   0  0  0  0  0  0  0  0  0  0  0  0
   -4.7391    4.8154   -0.8158 H   0  0  0  0  0  0  0  0  0  0  0  0
   -5.1875   -3.6406    2.7755 H   0  0  0  0  0  0  0  0  0  0  0  0
    0.4514    1.3064    2.1579 H   0  0  0  0  0  0  0  0  0  0  0  0
    1.6487    0.7961    3.4322 H   0  0  0  0  0  0  0  0  0  0  0  0
    0.7313    2.2879    3.5898 H   0  0  0  0  0  0  0  0  0  0  0  0
    6.2692    3.9237    0.3432 H   0  0  0  0  0  0  0  0  0  0  0  0
    5.0732    4.4305   -0.9321 H   0  0  0  0  0  0  0  0  0  0  0  0
    5.3651    5.4256    0.4888 H   0  0  0  0  0  0  0  0  0  0  0  0
  1 18  1  0  0  0  0
  1 34  1  0  0  0  0
  2 20  1  0  0  0  0
  2 35  1  0  0  0  0
  3 12  1  0  0  0  0
  3 16  1  0  0  0  0
  3 51  1  0  0  0  0
  4 13  3  0  0  0  0
  5  6  1  0  0  0  0
  5  7  1  0  0  0  0
  5  9  1  0  0  0  0
  5 13  1  0  0  0  0
  6 10  1  0  0  0  0
  6 11  1  0  0  0  0
  6 36  1  0  0  0  0
  7  8  1  0  0  0  0
  7 37  1  0  0  0  0
  7 38  1  0  0  0  0
  8 12  1  0  0  0  0
  8 39  1  0  0  0  0
  8 40  1  0  0  0  0
  9 14  2  0  0  0  0
  9 15  1  0  0  0  0
 10 41  1  0  0  0  0
 10 42  1  0  0  0  0
 10 43  1  0  0  0  0
 11 44  1  0  0  0  0
 11 45  1  0  0  0  0
 11 46  1  0  0  0  0
 12 47  1  0  0  0  0
 12 48  1  0  0  0  0
 14 18  1  0  0  0  0
 14 49  1  0  0  0  0
 15 19  2  0  0  0  0
 15 50  1  0  0  0  0
 16 17  1  0  0  0  0
 16 52  1  0  0  0  0
 16 53  1  0  0  0  0
 17 21  2  0  0  0  0
 17 22  1  0  0  0  0
 18 20  2  0  0  0  0
 19 20  1  0  0  0  0
 19 54  1  0  0  0  0
 21 23  1  0  0  0  0
 21 26  1  0  0  0  0
 22 24  1  0  0  0  0
 22 27  2  0  0  0  0
 23 25  2  0  0  0  0
 23 28  1  0  0  0  0
 24 25  1  0  0  0  0
 24 29  2  0  0  0  0
 25 55  1  0  0  0  0
 26 30  2  0  0  0  0
 26 56  1  0  0  0  0
 27 31  1  0  0  0  0
 27 57  1  0  0  0  0
 28 32  2  0  0  0  0
 28 58  1  0  0  0  0
 29 33  1  0  0  0  0
 29 59  1  0  0  0  0
 30 32  1  0  0  0  0
 30 60  1  0  0  0  0
 31 33  2  0  0  0  0
 31 61  1  0  0  0  0
 32 62  1  0  0  0  0
 33 63  1  0  0  0  0
 34 64  1  0  0  0  0
 34 65  1  0  0  0  0
 34 66  1  0  0  0  0
 35 67  1  0  0  0  0
 35 68  1  0  0  0  0
 35 69  1  0  0  0  0
M  END
> <PUBCHEM_COMPOUND_CID>
10577412

> <PUBCHEM_CONFORMER_RMSD>
1

> <PUBCHEM_CONFORMER_DIVERSEORDER>
1
151
167
143
46
203
99
240
93
283
138
335
312
287
286
111
61
234
128
236
268
254
174
230
94
148
118
150
5
305
107
276
306
333
23
229
302
119
309
20
218
223
345
141
300
70
252
147
323
131
87
337
292
189
154
339
115
294
123
90
315
308
281
175
155
219
298
171
198
267
106
82
157
244
169
43
317
158
133
331
92
170
179
260
85
56
256
325
208
253
199
156
182
255
318
17
74
163
160
188
251
304
186
288
278
126
68
162
129
257
328
224
237
69
322
180
152
121
297
75
11
50
201
13
134
209
343
84
284
58
264
195
321
342
91
125
248
191
38
173
272
83
291
120
65
270
97
124
178
202
146
262
168
185
159
194
27
183
24
59
249
273
324
221
299
37
259
35
247
197
344
285
102
64
181
164
336
79
145
165
127
320
88
261
96
327
330
319
265
104
137
263
142
211
177
67
340
187
232
18
231
296
31
116
36
217
246
290
206
73
135
2
49
227
105
89
132
334
136
213
250
210
140
225
9
196
200
176
81
215
172
258
205
44
98
57
310
220
274
204
341
153
313
110
40
329
275
6
238
71
149
166
14
301
216
76
113
277
33
42
226
114
316
311
30
280
161
117
77
266
228
10
62
139
60
108
279
48
241
55
19
282
235
212
100
295
109
307
184
32
53
242
289
245
207
45
7
12
54
39
29
66
192
233
222
130
34
338
21
95
239
52
314
112
63
28
122
16
269
47
86
22
190
271
103
41
326
332
78
243
15
303
72
101
214
80
3
8
193
25
51
293
26
4
144

> <PUBCHEM_MMFF94_PARTIAL_CHARGES>
39
1 -0.36
12 0.27
13 0.36
14 -0.15
15 -0.15
16 0.41
17 -0.14
18 0.08
19 -0.15
2 -0.36
20 0.08
25 -0.15
26 -0.15
27 -0.15
28 -0.15
29 -0.15
3 -0.9
30 -0.15
31 -0.15
32 -0.15
33 -0.15
34 0.28
35 0.28
4 -0.56
49 0.15
5 0.34
50 0.15
51 0.36
54 0.15
55 0.15
56 0.15
57 0.15
58 0.15
59 0.15
60 0.15
61 0.15
62 0.15
63 0.15
9 -0.14

> <PUBCHEM_EFFECTIVE_ROTOR_COUNT>
10

> <PUBCHEM_PHARMACOPHORE_FEATURES>
11
1 1 acceptor
1 2 acceptor
1 3 cation
1 3 donor
1 4 acceptor
3 6 10 11 hydrophobe
4 5 6 7 8 hydrophobe
6 17 21 22 23 24 25 rings
6 21 23 26 28 30 32 rings
6 22 24 27 29 31 33 rings
6 9 14 15 18 19 20 rings

> <PUBCHEM_HEAVY_ATOM_COUNT>
35

> <PUBCHEM_ATOM_DEF_STEREO_COUNT>
0

> <PUBCHEM_ATOM_UDEF_STEREO_COUNT>
1

> <PUBCHEM_BOND_DEF_STEREO_COUNT>
0

> <PUBCHEM_BOND_UDEF_STEREO_COUNT>
0

> <PUBCHEM_ISOTOPIC_ATOM_COUNT>
0

> <PUBCHEM_COMPONENT_COUNT>
1

> <PUBCHEM_CACTVS_TAUTO_COUNT>
1

> <PUBCHEM_CONFORMER_ID>
00A1660400000001

> <PUBCHEM_MMFF94_ENERGY>
126.2171

> <PUBCHEM_FEATURE_SELFOVERLAP>
55.896

> <PUBCHEM_SHAPE_FINGERPRINT>
10369192 42 18049443939959714948
10842051 180 17610337521254929583
10842077 115 18120904348480012393
11135609 201 17981599687432651672
12128747 34 18336265626724976087
12633046 712 18116143372932291222
13583140 156 18412822469535753503
14950920 106 18187356597779306795
150020 26 18343864432972798873
15336146 87 18411144657814923639
15357212 105 18263382359463571261
15513586 35 18199468934283598673
17974551 9 18263635187013120623
19304152 47 18191576656677824052
20554085 129 17828196598673371981
21133410 52 17044016563824978110
22121540 332 18117291439761271750
3459 110 18272374226122187639
469060 322 17764287828346807383
50677037 204 17045409636478218376
508706 21 18335981991695778319
5252454 2 17845085358350799860
57724786 102 18059863822276290157
6086070 43 18127675042310211463
6703917 75 17898301739232802420

> <PUBCHEM_SHAPE_MULTIPOLES>
698.58
14.87
5.67
2.47
2
2.14
0.05
2.78
-3.09
-2.12
-1.16
0.01
-0.37
4.35

> <PUBCHEM_SHAPE_SELFOVERLAP>
1506.017

> <PUBCHEM_SHAPE_VOLUME>
384.6

> <PUBCHEM_COORDINATE_TYPE>
2
5
10

$$$$