56946831
  -OEChem-03242010103D

 50 52  0     0  0  0  0  0  0999 V2000
    4.7235    2.9099    0.6573 O   0  0  0  0  0  0  0  0  0  0  0  0
    4.8123   -1.6482   -0.8089 O   0  0  0  0  0  0  0  0  0  0  0  0
    6.1591    0.6542   -0.0671 O   0  0  0  0  0  0  0  0  0  0  0  0
   -0.0685    1.6215   -0.2542 O   0  0  0  0  0  0  0  0  0  0  0  0
   -0.5092   -4.0293   -0.4167 O   0  5  0  0  0  0  0  0  0  0  0  0
   -0.4965   -3.6409    1.7439 O   0  0  0  0  0  0  0  0  0  0  0  0
   -0.0565   -0.7026    0.0980 N   0  0  0  0  0  0  0  0  0  0  0  0
   -0.9011   -3.3870    0.5854 N   0  3  0  0  0  0  0  0  0  0  0  0
   -1.4161   -1.0239    0.1635 C   0  0  0  0  0  0  0  0  0  0  0  0
   -3.7185   -0.3015    0.0470 C   0  0  0  0  0  0  0  0  0  0  0  0
   -2.3560   -0.0087   -0.0135 C   0  0  0  0  0  0  0  0  0  0  0  0
   -1.8384   -2.3318    0.4012 C   0  0  0  0  0  0  0  0  0  0  0  0
    2.0065    0.5824   -0.0926 C   0  0  0  0  0  0  0  0  0  0  0  0
   -4.6936    0.7516   -0.1353 C   0  0  0  0  0  0  0  0  0  0  0  0
   -4.1409   -1.6095    0.2847 C   0  0  0  0  0  0  0  0  0  0  0  0
    0.5203    0.5569   -0.1000 C   0  0  0  0  0  0  0  0  0  0  0  0
   -3.2010   -2.6247    0.4617 C   0  0  0  0  0  0  0  0  0  0  0  0
    2.7263   -0.5551   -0.4582 C   0  0  0  0  0  0  0  0  0  0  0  0
    2.6816    1.7444    0.2815 C   0  0  0  0  0  0  0  0  0  0  0  0
    4.0762    1.7687    0.2900 C   0  0  0  0  0  0  0  0  0  0  0  0
    4.1209   -0.5308   -0.4497 C   0  0  0  0  0  0  0  0  0  0  0  0
    4.7958    0.6312   -0.0757 C   0  0  0  0  0  0  0  0  0  0  0  0
   -5.1717    1.0457   -1.4123 C   0  0  0  0  0  0  0  0  0  0  0  0
   -5.1559    1.4728    0.9655 C   0  0  0  0  0  0  0  0  0  0  0  0
   -6.1120    2.0609   -1.5885 C   0  0  0  0  0  0  0  0  0  0  0  0
   -6.0961    2.4879    0.7895 C   0  0  0  0  0  0  0  0  0  0  0  0
   -6.5741    2.7820   -0.4876 C   0  0  0  0  0  0  0  0  0  0  0  0
    5.0307    3.0632    2.0416 C   0  0  0  0  0  0  0  0  0  0  0  0
    4.0461   -2.7935   -1.1776 C   0  0  0  0  0  0  0  0  0  0  0  0
    6.8068    1.0540   -1.2727 C   0  0  0  0  0  0  0  0  0  0  0  0
   -2.1014    1.0233   -0.2074 H   0  0  0  0  0  0  0  0  0  0  0  0
    0.5656   -1.4834    0.2788 H   0  0  0  0  0  0  0  0  0  0  0  0
   -5.1991   -1.8548    0.3351 H   0  0  0  0  0  0  0  0  0  0  0  0
   -3.5455   -3.6393    0.6462 H   0  0  0  0  0  0  0  0  0  0  0  0
    2.1797   -1.4258   -0.7962 H   0  0  0  0  0  0  0  0  0  0  0  0
    2.1333    2.6369    0.5733 H   0  0  0  0  0  0  0  0  0  0  0  0
   -4.8219    0.4933   -2.2813 H   0  0  0  0  0  0  0  0  0  0  0  0
   -4.7936    1.2566    1.9679 H   0  0  0  0  0  0  0  0  0  0  0  0
   -6.4843    2.2900   -2.5827 H   0  0  0  0  0  0  0  0  0  0  0  0
   -6.4561    3.0496    1.6465 H   0  0  0  0  0  0  0  0  0  0  0  0
   -7.3062    3.5725   -0.6247 H   0  0  0  0  0  0  0  0  0  0  0  0
    4.1132    3.0799    2.6383 H   0  0  0  0  0  0  0  0  0  0  0  0
    5.6866    2.2560    2.3828 H   0  0  0  0  0  0  0  0  0  0  0  0
    5.5511    4.0158    2.1735 H   0  0  0  0  0  0  0  0  0  0  0  0
    3.4334   -3.1575   -0.3456 H   0  0  0  0  0  0  0  0  0  0  0  0
    3.4587   -2.6117   -2.0842 H   0  0  0  0  0  0  0  0  0  0  0  0
    4.7571   -3.5910   -1.4177 H   0  0  0  0  0  0  0  0  0  0  0  0
    7.8872    1.0204   -1.1083 H   0  0  0  0  0  0  0  0  0  0  0  0
    6.5257    2.0776   -1.5400 H   0  0  0  0  0  0  0  0  0  0  0  0
    6.5561    0.3704   -2.0900 H   0  0  0  0  0  0  0  0  0  0  0  0
  1 20  1  0  0  0  0
  1 28  1  0  0  0  0
  2 21  1  0  0  0  0
  2 29  1  0  0  0  0
  3 22  1  0  0  0  0
  3 30  1  0  0  0  0
  4 16  2  0  0  0  0
  5  8  1  0  0  0  0
  6  8  2  0  0  0  0
  7  9  1  0  0  0  0
  7 16  1  0  0  0  0
  7 32  1  0  0  0  0
  8 12  1  0  0  0  0
  9 11  1  0  0  0  0
  9 12  2  0  0  0  0
 10 11  2  0  0  0  0
 10 14  1  0  0  0  0
 10 15  1  0  0  0  0
 11 31  1  0  0  0  0
 12 17  1  0  0  0  0
 13 16  1  0  0  0  0
 13 18  2  0  0  0  0
 13 19  1  0  0  0  0
 14 23  2  0  0  0  0
 14 24  1  0  0  0  0
 15 17  2  0  0  0  0
 15 33  1  0  0  0  0
 17 34  1  0  0  0  0
 18 21  1  0  0  0  0
 18 35  1  0  0  0  0
 19 20  2  0  0  0  0
 19 36  1  0  0  0  0
 20 22  1  0  0  0  0
 21 22  2  0  0  0  0
 23 25  1  0  0  0  0
 23 37  1  0  0  0  0
 24 26  2  0  0  0  0
 24 38  1  0  0  0  0
 25 27  2  0  0  0  0
 25 39  1  0  0  0  0
 26 27  1  0  0  0  0
 26 40  1  0  0  0  0
 27 41  1  0  0  0  0
 28 42  1  0  0  0  0
 28 43  1  0  0  0  0
 28 44  1  0  0  0  0
 29 45  1  0  0  0  0
 29 46  1  0  0  0  0
 29 47  1  0  0  0  0
 30 48  1  0  0  0  0
 30 49  1  0  0  0  0
 30 50  1  0  0  0  0
M  CHG  2   5  -1   8   1
M  END
> <PUBCHEM_COMPOUND_CID>
56946831

> <PUBCHEM_CONFORMER_RMSD>
1

> <PUBCHEM_CONFORMER_DIVERSEORDER>
1
12
8
2
5
9
7
3
11
4
10
6

> <PUBCHEM_MMFF94_PARTIAL_CHARGES>
39
1 -0.36
11 -0.15
12 0.13
13 0.09
15 -0.15
16 0.54
17 -0.15
18 -0.15
19 -0.15
2 -0.36
20 0.08
21 0.08
22 0.08
23 -0.15
24 -0.15
25 -0.15
26 -0.15
27 -0.15
28 0.28
29 0.28
3 -0.36
30 0.28
31 0.15
32 0.37
33 0.15
34 0.15
35 0.15
36 0.15
37 0.15
38 0.15
39 0.15
4 -0.57
40 0.15
41 0.15
5 -0.52
6 -0.52
7 -0.55
8 0.91
9 0.12

> <PUBCHEM_EFFECTIVE_ROTOR_COUNT>
8

> <PUBCHEM_PHARMACOPHORE_FEATURES>
11
1 1 acceptor
1 2 acceptor
1 3 acceptor
1 4 acceptor
1 5 acceptor
1 5 anion
1 6 acceptor
1 7 donor
6 13 18 19 20 21 22 rings
6 14 23 24 25 26 27 rings
6 9 10 11 12 15 17 rings

> <PUBCHEM_HEAVY_ATOM_COUNT>
30

> <PUBCHEM_ATOM_DEF_STEREO_COUNT>
0

> <PUBCHEM_ATOM_UDEF_STEREO_COUNT>
0

> <PUBCHEM_BOND_DEF_STEREO_COUNT>
0

> <PUBCHEM_BOND_UDEF_STEREO_COUNT>
0

> <PUBCHEM_ISOTOPIC_ATOM_COUNT>
0

> <PUBCHEM_COMPONENT_COUNT>
1

> <PUBCHEM_CACTVS_TAUTO_COUNT>
2

> <PUBCHEM_CONFORMER_ID>
0364F08F00000001

> <PUBCHEM_MMFF94_ENERGY>
136.5048

> <PUBCHEM_FEATURE_SELFOVERLAP>
55.915

> <PUBCHEM_SHAPE_FINGERPRINT>
10675989 125 18340485552288797496
10835480 77 18342172293505228760
12422481 6 17168137889338192431
13944108 23 17905604402816376909
14117953 113 18200032816640841910
14790565 3 18266463092628635777
14856354 85 15285654187627164841
15183329 4 18272369733238242701
15361156 5 18413113878871891236
15400415 2 18340208600244874060
16112460 7 18270691852587530745
17349148 13 13542190527526712849
21033648 29 18334852848545808353
21279426 13 18339931419708341775
21421861 104 17749938978566582202
21859007 373 17969487226321937836
22121540 332 17244410903794075303
23559900 14 18342740741106109056
2838139 119 18272087133475953397
376196 1 18412824685649499463
38695281 34 18271526386740827239
4015057 19 17346035696320431289
4073 2 18335706091454749026
4144715 1 18119814857200926880
4403749 210 17841701105470125024
5104073 3 18335136513860537803
5283173 99 18338516446995759536
5385378 56 18189901907806310729
550186 72 16897642992009203248
6328613 192 18335709368378444972
6371380 46 18409449142334467290
6698420 124 18200605705232410649
7226269 152 18343305851322897241

> <PUBCHEM_SHAPE_MULTIPOLES>
572.21
17.45
4.34
1.24
0.38
2.93
-0.11
-15.37
3.29
-0.65
-1.23
0.14
-0.35
2.81

> <PUBCHEM_SHAPE_SELFOVERLAP>
1241.805

> <PUBCHEM_SHAPE_VOLUME>
313.7

> <PUBCHEM_COORDINATE_TYPE>
2
5
10

$$$$