19
 OpenBabel03292022253D

 87 90  0  0  1  0  0  0  0  0999 V2000
    4.3284   -0.1213   -3.8902 C   0  0  0  0  0  0  0  0  0  0  0  0
    4.5738    1.0463   -3.2814 C   0  0  0  0  0  0  0  0  0  0  0  0
    5.2734    1.1831   -1.9641 C   0  0  0  0  0  0  0  0  0  0  0  0
    4.5193    2.0838   -1.1349 O   0  0  0  0  0  0  0  0  0  0  0  0
    5.2249    2.5729   -0.0588 C   0  0  0  0  0  0  0  0  0  0  0  0
    6.4695    3.1758   -0.2755 C   0  0  0  0  0  0  0  0  0  0  0  0
    7.2388    3.6305    0.7985 C   0  0  0  0  0  0  0  0  0  0  0  0
    8.6794    3.8766    0.5341 C   0  0  0  0  0  0  0  0  0  0  0  0
    9.1816    3.8045   -0.5766 O   0  0  0  0  0  0  0  0  0  0  0  0
    9.3618    3.8943    1.7094 O   0  0  0  0  0  0  0  0  0  0  0  0
   10.6352    3.2024    1.6947 C   0  0  2  0  0  0  0  0  0  0  0  0
   10.2934    1.7751    2.1234 C   0  0  0  0  0  0  0  0  0  0  0  0
   10.0788    1.7592    3.6096 C   0  0  0  0  0  0  0  0  0  0  0  0
    8.9748    1.2461    4.2960 C   0  0  0  0  0  0  0  0  0  0  0  0
    7.8228    0.7810    3.7239 O   0  0  0  0  0  0  0  0  0  0  0  0
    7.9676   -0.2646    2.7747 C   0  0  0  0  0  0  0  0  0  0  0  0
    8.9317    1.3264    5.6944 C   0  0  0  0  0  0  0  0  0  0  0  0
    9.9997    1.8484    6.4323 C   0  0  0  0  0  0  0  0  0  0  0  0
    9.8282    1.8498    7.7890 O   0  0  0  0  0  0  0  0  0  0  0  0
   11.0051    1.9730    8.5790 C   0  0  0  0  0  0  0  0  0  0  0  0
   11.0982    2.3614    5.7540 C   0  0  0  0  0  0  0  0  0  0  0  0
   11.0978    2.3586    4.3555 C   0  0  0  0  0  0  0  0  0  0  0  0
   12.1398    2.9861    3.7168 O   0  0  0  0  0  0  0  0  0  0  0  0
   11.7135    3.8512    2.6227 C   0  0  2  0  0  0  0  0  0  0  0  0
   11.4186    5.2710    3.1055 C   0  0  0  0  0  0  0  0  0  0  0  0
   11.6613    5.6629    4.4251 C   0  0  0  0  0  0  0  0  0  0  0  0
   11.2403    6.9053    4.9232 C   0  0  0  0  0  0  0  0  0  0  0  0
   11.4356    7.2342    6.2416 O   0  0  0  0  0  0  0  0  0  0  0  0
   12.5700    6.6697    6.8899 C   0  0  0  0  0  0  0  0  0  0  0  0
   10.5455    7.8000    4.0809 C   0  0  0  0  0  0  0  0  0  0  0  0
    9.9868    8.9892    4.4709 O   0  0  0  0  0  0  0  0  0  0  0  0
    9.8600    9.2961    5.8506 C   0  0  0  0  0  0  0  0  0  0  0  0
   10.4127    7.4669    2.7163 C   0  0  0  0  0  0  0  0  0  0  0  0
    9.8123    8.1799    1.7079 O   0  0  0  0  0  0  0  0  0  0  0  0
    9.4865    9.5422    1.9244 C   0  0  0  0  0  0  0  0  0  0  0  0
   10.8774    6.2293    2.2461 C   0  0  0  0  0  0  0  0  0  0  0  0
    6.6790    3.6603    2.0744 C   0  0  0  0  0  0  0  0  0  0  0  0
    5.3876    3.1632    2.2918 C   0  0  0  0  0  0  0  0  0  0  0  0
    4.9820    3.2651    3.6007 O   0  0  0  0  0  0  0  0  0  0  0  0
    3.5962    3.5355    3.8121 C   0  0  0  0  0  0  0  0  0  0  0  0
    3.3857    4.3263    5.0799 C   0  0  0  0  0  0  0  0  0  0  0  0
    4.3279    4.7963    5.9095 C   0  0  0  0  0  0  0  0  0  0  0  0
    4.6829    2.5326    1.2430 C   0  0  0  0  0  0  0  0  0  0  0  0
    3.5192    1.8921    1.5940 O   0  0  0  0  0  0  0  0  0  0  0  0
    3.1843    0.7112    0.8684 C   0  0  0  0  0  0  0  0  0  0  0  0
    2.5529   -0.3284    1.7569 C   0  0  0  0  0  0  0  0  0  0  0  0
    2.6822   -0.4396    3.0857 C   0  0  0  0  0  0  0  0  0  0  0  0
    3.8504   -0.1482   -4.8650 H   0  0  0  0  0  0  0  0  0  0  0  0
    4.6118   -1.0703   -3.4454 H   0  0  0  0  0  0  0  0  0  0  0  0
    4.2938    1.9731   -3.7773 H   0  0  0  0  0  0  0  0  0  0  0  0
    6.2838    1.5395   -2.1803 H   0  0  0  0  0  0  0  0  0  0  0  0
    5.3547    0.2152   -1.4566 H   0  0  0  0  0  0  0  0  0  0  0  0
    6.8804    3.2596   -1.2772 H   0  0  0  0  0  0  0  0  0  0  0  0
   11.0391    3.1895    0.6743 H   0  0  0  0  0  0  0  0  0  0  0  0
   11.1062    1.0844    1.8747 H   0  0  0  0  0  0  0  0  0  0  0  0
    9.4076    1.4489    1.5812 H   0  0  0  0  0  0  0  0  0  0  0  0
    7.1460   -0.9722    2.9229 H   0  0  0  0  0  0  0  0  0  0  0  0
    8.9126   -0.8096    2.8680 H   0  0  0  0  0  0  0  0  0  0  0  0
    7.8500    0.1407    1.7660 H   0  0  0  0  0  0  0  0  0  0  0  0
    8.0504    0.9708    6.2255 H   0  0  0  0  0  0  0  0  0  0  0  0
   10.7252    1.7939    9.6224 H   0  0  0  0  0  0  0  0  0  0  0  0
   11.4227    2.9831    8.5173 H   0  0  0  0  0  0  0  0  0  0  0  0
   11.7497    1.2201    8.3004 H   0  0  0  0  0  0  0  0  0  0  0  0
   11.9287    2.8194    6.2754 H   0  0  0  0  0  0  0  0  0  0  0  0
   12.6258    3.9393    2.0142 H   0  0  0  0  0  0  0  0  0  0  0  0
   12.1494    4.9589    5.0877 H   0  0  0  0  0  0  0  0  0  0  0  0
   12.7003    7.1920    7.8423 H   0  0  0  0  0  0  0  0  0  0  0  0
   13.4800    6.8153    6.2986 H   0  0  0  0  0  0  0  0  0  0  0  0
   12.4109    5.6114    7.1204 H   0  0  0  0  0  0  0  0  0  0  0  0
    9.2204   10.1801    5.9349 H   0  0  0  0  0  0  0  0  0  0  0  0
   10.8327    9.5644    6.2736 H   0  0  0  0  0  0  0  0  0  0  0  0
    9.3694    8.4933    6.4110 H   0  0  0  0  0  0  0  0  0  0  0  0
    9.1791    9.9612    0.9609 H   0  0  0  0  0  0  0  0  0  0  0  0
   10.3554   10.1136    2.2650 H   0  0  0  0  0  0  0  0  0  0  0  0
    8.6326    9.6413    2.6011 H   0  0  0  0  0  0  0  0  0  0  0  0
   10.7468    6.0045    1.1878 H   0  0  0  0  0  0  0  0  0  0  0  0
    7.2491    4.0319    2.9238 H   0  0  0  0  0  0  0  0  0  0  0  0
    3.0651    2.5866    3.9275 H   0  0  0  0  0  0  0  0  0  0  0  0
    3.1593    4.1083    2.9846 H   0  0  0  0  0  0  0  0  0  0  0  0
    2.3442    4.5222    5.3256 H   0  0  0  0  0  0  0  0  0  0  0  0
    5.3860    4.6336    5.7211 H   0  0  0  0  0  0  0  0  0  0  0  0
    4.0592    5.3554    6.7992 H   0  0  0  0  0  0  0  0  0  0  0  0
    4.0588    0.2275    0.4235 H   0  0  0  0  0  0  0  0  0  0  0  0
    2.4685    0.9861    0.0866 H   0  0  0  0  0  0  0  0  0  0  0  0
    1.9648   -1.0802    1.2343 H   0  0  0  0  0  0  0  0  0  0  0  0
    3.2859    0.2539    3.6624 H   0  0  0  0  0  0  0  0  0  0  0  0
    2.2026   -1.2513    3.6242 H   0  0  0  0  0  0  0  0  0  0  0  0
  1  2  2  0  0  0  0
  1 48  1  0  0  0  0
  1 49  1  0  0  0  0
  2  3  1  0  0  0  0
  2 50  1  0  0  0  0
  3  4  1  0  0  0  0
  3 51  1  0  0  0  0
  3 52  1  0  0  0  0
  4  5  1  0  0  0  0
  5  6  1  0  0  0  0
  5 43  2  0  0  0  0
  6  7  2  0  0  0  0
  6 53  1  0  0  0  0
  7  8  1  0  0  0  0
  7 37  1  0  0  0  0
  8  9  2  0  0  0  0
  8 10  1  0  0  0  0
 10 11  1  0  0  0  0
 11 12  1  0  0  0  0
 11 24  1  0  0  0  0
 11 54  1  6  0  0  0
 12 13  1  0  0  0  0
 12 55  1  0  0  0  0
 12 56  1  0  0  0  0
 13 14  1  0  0  0  0
 13 22  2  0  0  0  0
 14 15  1  0  0  0  0
 14 17  2  0  0  0  0
 15 16  1  0  0  0  0
 16 57  1  0  0  0  0
 16 58  1  0  0  0  0
 16 59  1  0  0  0  0
 17 18  1  0  0  0  0
 17 60  1  0  0  0  0
 18 19  1  0  0  0  0
 18 21  2  0  0  0  0
 19 20  1  0  0  0  0
 20 61  1  0  0  0  0
 20 62  1  0  0  0  0
 20 63  1  0  0  0  0
 21 22  1  0  0  0  0
 21 64  1  0  0  0  0
 22 23  1  0  0  0  0
 23 24  1  0  0  0  0
 24 25  1  0  0  0  0
 24 65  1  6  0  0  0
 25 26  1  0  0  0  0
 25 36  2  0  0  0  0
 26 27  2  0  0  0  0
 26 66  1  0  0  0  0
 27 28  1  0  0  0  0
 27 30  1  0  0  0  0
 28 29  1  0  0  0  0
 29 67  1  0  0  0  0
 29 68  1  0  0  0  0
 29 69  1  0  0  0  0
 30 31  1  0  0  0  0
 30 33  2  0  0  0  0
 31 32  1  0  0  0  0
 32 70  1  0  0  0  0
 32 71  1  0  0  0  0
 32 72  1  0  0  0  0
 33 34  1  0  0  0  0
 33 36  1  0  0  0  0
 34 35  1  0  0  0  0
 35 73  1  0  0  0  0
 35 74  1  0  0  0  0
 35 75  1  0  0  0  0
 36 76  1  0  0  0  0
 37 38  2  0  0  0  0
 37 77  1  0  0  0  0
 38 39  1  0  0  0  0
 38 43  1  0  0  0  0
 39 40  1  0  0  0  0
 40 41  1  0  0  0  0
 40 78  1  0  0  0  0
 40 79  1  0  0  0  0
 41 42  2  0  0  0  0
 41 80  1  0  0  0  0
 42 81  1  0  0  0  0
 42 82  1  0  0  0  0
 43 44  1  0  0  0  0
 44 45  1  0  0  0  0
 45 46  1  0  0  0  0
 45 83  1  0  0  0  0
 45 84  1  0  0  0  0
 46 47  2  0  0  0  0
 46 85  1  0  0  0  0
 47 86  1  0  0  0  0
 47 87  1  0  0  0  0
M  END
>  <Energy>
218.535

$$$$