122179396
  -OEChem-03242010103D

 70 73  0     1  0  0  0  0  0999 V2000
    2.5725    1.2689   -0.1761 O   0  0  0  0  0  0  0  0  0  0  0  0
   -0.3578   -0.9428    0.1190 O   0  0  0  0  0  0  0  0  0  0  0  0
    1.6771   -2.7200    0.1816 O   0  0  0  0  0  0  0  0  0  0  0  0
    4.1842   -3.3154   -0.1515 O   0  0  0  0  0  0  0  0  0  0  0  0
   -2.1040    3.9776   -2.0324 O   0  0  0  0  0  0  0  0  0  0  0  0
   -0.8337    4.0279    2.5851 O   0  0  0  0  0  0  0  0  0  0  0  0
    7.1672    0.3136   -0.8271 O   0  0  0  0  0  0  0  0  0  0  0  0
   -2.3524    5.0524    0.5081 O   0  0  0  0  0  0  0  0  0  0  0  0
   -0.5721   -1.8113    2.2402 O   0  0  0  0  0  0  0  0  0  0  0  0
   -4.9629   -1.1061   -1.6852 O   0  0  0  0  0  0  0  0  0  0  0  0
   -6.0558   -3.4245   -0.6089 O   0  0  0  0  0  0  0  0  0  0  0  0
    1.2487    0.7758   -0.4367 C   0  0  1  0  0  0  0  0  0  0  0  0
    0.9286   -0.4395    0.4353 C   0  0  2  0  0  0  0  0  0  0  0  0
    0.2852    1.9199   -0.1834 C   0  0  0  0  0  0  0  0  0  0  0  0
    1.9432   -1.5244    0.1479 C   0  0  0  0  0  0  0  0  0  0  0  0
    3.3118   -1.0558   -0.1462 C   0  0  0  0  0  0  0  0  0  0  0  0
    3.5494    0.3145   -0.2753 C   0  0  0  0  0  0  0  0  0  0  0  0
    4.3623   -1.9696   -0.2661 C   0  0  0  0  0  0  0  0  0  0  0  0
    0.1625    2.4583    1.0975 C   0  0  0  0  0  0  0  0  0  0  0  0
   -0.4781    2.4331   -1.2320 C   0  0  0  0  0  0  0  0  0  0  0  0
    4.8499    0.7739   -0.4906 C   0  0  0  0  0  0  0  0  0  0  0  0
   -1.3641    3.4851   -0.9997 C   0  0  0  0  0  0  0  0  0  0  0  0
   -0.7235    3.5103    1.3297 C   0  0  0  0  0  0  0  0  0  0  0  0
    5.9013   -0.1357   -0.6070 C   0  0  0  0  0  0  0  0  0  0  0  0
    5.6570   -1.5048   -0.4996 C   0  0  0  0  0  0  0  0  0  0  0  0
   -1.4867    4.0239    0.2811 C   0  0  0  0  0  0  0  0  0  0  0  0
   -1.0043   -1.6128    1.1154 C   0  0  0  0  0  0  0  0  0  0  0  0
   -2.3351   -2.0873    0.6589 C   0  0  0  0  0  0  0  0  0  0  0  0
    4.3105   -3.8767    1.1537 C   0  0  0  0  0  0  0  0  0  0  0  0
   -3.0370   -1.3696   -0.3095 C   0  0  0  0  0  0  0  0  0  0  0  0
   -2.8837   -3.2504    1.1990 C   0  0  0  0  0  0  0  0  0  0  0  0
   -1.9182    3.3703   -3.3095 C   0  0  0  0  0  0  0  0  0  0  0  0
   -0.0179    3.4455    3.5998 C   0  0  0  0  0  0  0  0  0  0  0  0
    8.1951   -0.6701   -0.9359 C   0  0  0  0  0  0  0  0  0  0  0  0
   -4.2874   -1.8153   -0.7383 C   0  0  0  0  0  0  0  0  0  0  0  0
   -3.6851    4.7063    0.8783 C   0  0  0  0  0  0  0  0  0  0  0  0
   -4.1342   -3.6960    0.7706 C   0  0  0  0  0  0  0  0  0  0  0  0
   -4.8360   -2.9786   -0.1981 C   0  0  0  0  0  0  0  0  0  0  0  0
   -4.3320    0.0712   -2.1855 C   0  0  0  0  0  0  0  0  0  0  0  0
   -6.5444   -4.6217   -0.0066 C   0  0  0  0  0  0  0  0  0  0  0  0
    1.1929    0.4971   -1.4994 H   0  0  0  0  0  0  0  0  0  0  0  0
    1.0231   -0.1942    1.5013 H   0  0  0  0  0  0  0  0  0  0  0  0
    0.7887    2.0344    1.8741 H   0  0  0  0  0  0  0  0  0  0  0  0
   -0.3435    1.9759   -2.2061 H   0  0  0  0  0  0  0  0  0  0  0  0
    5.0448    1.8401   -0.5777 H   0  0  0  0  0  0  0  0  0  0  0  0
    6.4351   -2.2567   -0.5840 H   0  0  0  0  0  0  0  0  0  0  0  0
    3.9433   -4.9061    1.1210 H   0  0  0  0  0  0  0  0  0  0  0  0
    3.7235   -3.3180    1.8898 H   0  0  0  0  0  0  0  0  0  0  0  0
    5.3631   -3.8903    1.4532 H   0  0  0  0  0  0  0  0  0  0  0  0
   -2.5814   -0.4621   -0.6895 H   0  0  0  0  0  0  0  0  0  0  0  0
   -2.3471   -3.8216    1.9522 H   0  0  0  0  0  0  0  0  0  0  0  0
   -0.8976    3.5137   -3.6804 H   0  0  0  0  0  0  0  0  0  0  0  0
   -2.5850    3.8841   -4.0099 H   0  0  0  0  0  0  0  0  0  0  0  0
   -2.2168    2.3166   -3.3034 H   0  0  0  0  0  0  0  0  0  0  0  0
    1.0481    3.5932    3.3954 H   0  0  0  0  0  0  0  0  0  0  0  0
   -0.2702    2.3926    3.7668 H   0  0  0  0  0  0  0  0  0  0  0  0
   -0.2378    3.9754    4.5326 H   0  0  0  0  0  0  0  0  0  0  0  0
    9.1355   -0.1365   -1.1084 H   0  0  0  0  0  0  0  0  0  0  0  0
    8.0366   -1.3243   -1.8000 H   0  0  0  0  0  0  0  0  0  0  0  0
    8.3142   -1.2331   -0.0039 H   0  0  0  0  0  0  0  0  0  0  0  0
   -4.4973   -4.6072    1.2333 H   0  0  0  0  0  0  0  0  0  0  0  0
   -4.2524    5.6303    1.0193 H   0  0  0  0  0  0  0  0  0  0  0  0
   -3.6905    4.1458    1.8185 H   0  0  0  0  0  0  0  0  0  0  0  0
   -4.1644    4.1187    0.0888 H   0  0  0  0  0  0  0  0  0  0  0  0
   -5.0063    0.5058   -2.9308 H   0  0  0  0  0  0  0  0  0  0  0  0
   -3.3952   -0.1607   -2.7040 H   0  0  0  0  0  0  0  0  0  0  0  0
   -4.2003    0.8247   -1.4012 H   0  0  0  0  0  0  0  0  0  0  0  0
   -7.5241   -4.8286   -0.4497 H   0  0  0  0  0  0  0  0  0  0  0  0
   -6.7028   -4.4963    1.0700 H   0  0  0  0  0  0  0  0  0  0  0  0
   -5.9039   -5.4799   -0.2369 H   0  0  0  0  0  0  0  0  0  0  0  0
  1 12  1  0  0  0  0
  1 17  1  0  0  0  0
  2 13  1  0  0  0  0
  2 27  1  0  0  0  0
  3 15  2  0  0  0  0
  4 18  1  0  0  0  0
  4 29  1  0  0  0  0
  5 22  1  0  0  0  0
  5 32  1  0  0  0  0
  6 23  1  0  0  0  0
  6 33  1  0  0  0  0
  7 24  1  0  0  0  0
  7 34  1  0  0  0  0
  8 26  1  0  0  0  0
  8 36  1  0  0  0  0
  9 27  2  0  0  0  0
 10 35  1  0  0  0  0
 10 39  1  0  0  0  0
 11 38  1  0  0  0  0
 11 40  1  0  0  0  0
 12 13  1  0  0  0  0
 12 14  1  0  0  0  0
 12 41  1  0  0  0  0
 13 15  1  0  0  0  0
 13 42  1  0  0  0  0
 14 19  2  0  0  0  0
 14 20  1  0  0  0  0
 15 16  1  0  0  0  0
 16 17  2  0  0  0  0
 16 18  1  0  0  0  0
 17 21  1  0  0  0  0
 18 25  2  0  0  0  0
 19 23  1  0  0  0  0
 19 43  1  0  0  0  0
 20 22  2  0  0  0  0
 20 44  1  0  0  0  0
 21 24  2  0  0  0  0
 21 45  1  0  0  0  0
 22 26  1  0  0  0  0
 23 26  2  0  0  0  0
 24 25  1  0  0  0  0
 25 46  1  0  0  0  0
 27 28  1  0  0  0  0
 28 30  2  0  0  0  0
 28 31  1  0  0  0  0
 29 47  1  0  0  0  0
 29 48  1  0  0  0  0
 29 49  1  0  0  0  0
 30 35  1  0  0  0  0
 30 50  1  0  0  0  0
 31 37  2  0  0  0  0
 31 51  1  0  0  0  0
 32 52  1  0  0  0  0
 32 53  1  0  0  0  0
 32 54  1  0  0  0  0
 33 55  1  0  0  0  0
 33 56  1  0  0  0  0
 33 57  1  0  0  0  0
 34 58  1  0  0  0  0
 34 59  1  0  0  0  0
 34 60  1  0  0  0  0
 35 38  2  0  0  0  0
 36 62  1  0  0  0  0
 36 63  1  0  0  0  0
 36 64  1  0  0  0  0
 37 38  1  0  0  0  0
 37 61  1  0  0  0  0
 39 65  1  0  0  0  0
 39 66  1  0  0  0  0
 39 67  1  0  0  0  0
 40 68  1  0  0  0  0
 40 69  1  0  0  0  0
 40 70  1  0  0  0  0
M  END
> <PUBCHEM_COMPOUND_CID>
122179396

> <PUBCHEM_CONFORMER_RMSD>
1.2

> <PUBCHEM_CONFORMER_DIVERSEORDER>
1
7
16
8
11
10
15
4
9
14
12
6
13
2
5
3

> <PUBCHEM_MMFF94_PARTIAL_CHARGES>
47
1 -0.36
10 -0.36
11 -0.36
12 0.42
13 0.34
14 -0.14
15 0.42
16 0.09
17 0.08
18 0.08
19 -0.15
2 -0.43
20 -0.15
21 -0.15
22 0.08
23 0.08
24 0.08
25 -0.15
26 0.08
27 0.63
28 0.09
29 0.28
3 -0.57
30 -0.15
31 -0.15
32 0.28
33 0.28
34 0.28
35 0.08
36 0.28
37 -0.15
38 0.08
39 0.28
4 -0.36
40 0.28
43 0.15
44 0.15
45 0.15
46 0.15
5 -0.36
50 0.15
51 0.15
6 -0.36
61 0.15
7 -0.36
8 -0.36
9 -0.57

> <PUBCHEM_EFFECTIVE_ROTOR_COUNT>
11.6

> <PUBCHEM_PHARMACOPHORE_FEATURES>
14
1 1 acceptor
1 10 acceptor
1 11 acceptor
1 3 acceptor
1 4 acceptor
1 5 acceptor
1 6 acceptor
1 7 acceptor
1 8 acceptor
1 9 acceptor
6 1 12 13 15 16 17 rings
6 14 19 20 22 23 26 rings
6 16 17 18 21 24 25 rings
6 28 30 31 35 37 38 rings

> <PUBCHEM_HEAVY_ATOM_COUNT>
40

> <PUBCHEM_ATOM_DEF_STEREO_COUNT>
2

> <PUBCHEM_ATOM_UDEF_STEREO_COUNT>
0

> <PUBCHEM_BOND_DEF_STEREO_COUNT>
0

> <PUBCHEM_BOND_UDEF_STEREO_COUNT>
0

> <PUBCHEM_ISOTOPIC_ATOM_COUNT>
0

> <PUBCHEM_COMPONENT_COUNT>
1

> <PUBCHEM_CACTVS_TAUTO_COUNT>
1

> <PUBCHEM_CONFORMER_ID>
07484F4400000001

> <PUBCHEM_MMFF94_ENERGY>
185.6275

> <PUBCHEM_FEATURE_SELFOVERLAP>
71.116

> <PUBCHEM_SHAPE_FINGERPRINT>
10050765 1 18266464209869161606
10190206 1 17682435707983977092
10653451 467 17904189683380414288
10930396 42 18049700105268852304
11093857 51 17031910894132985365
11115154 58 18341336677869428619
11991303 11 17974022651640614735
12166972 35 17843970471083431195
12440605 4 18190188879967199386
12788726 201 18408598145998949346
13540713 5 18188776016737946154
13631057 29 18410016546495632542
13636023 20 18196079173973247890
13911987 19 17900281972200814558
140371 6 18114759221395349254
14068700 675 18336269041608786556
14681490 219 18334856138401242003
150020 26 17759242182339891217
15200665 1 18050009882940508355
15276724 80 18337956679713331271
15351339 4 17895459393541865531
15890870 6 18265610976193318485
15927050 60 18120101572296051842
16988056 13 18048310347908382805
18365409 1 18265342720398081117
18681886 176 18197495336249567179
19301676 85 16829832218885121350
19319366 153 17263272939664088385
21049683 271 18265337398458184846
21133410 230 18196919171224881272
21133410 62 18044083572541864893
23559900 14 17903635534200156163
283562 15 18407764733570595026
3383291 50 16897084934345974410
3493558 16 17822014241456310070
4353968 344 18412269407589052030
4408954 87 17340167414522915433
50150288 127 17630044854307521433
5171179 24 17988351671974164064
5912855 24 18267870493266343806
5969126 39 18413109476788758182
59755656 520 18051133597025949772
6004065 56 18124033700544038738

> <PUBCHEM_SHAPE_MULTIPOLES>
758.62
14.13
7.71
2.15
15.83
5.31
0.46
-17.28
-5.89
-11.42
2.27
-1.69
2.97
0.05

> <PUBCHEM_SHAPE_SELFOVERLAP>
1646.2

> <PUBCHEM_SHAPE_VOLUME>
417.9

> <PUBCHEM_COORDINATE_TYPE>
2
5
10

$$$$