21721877
  -OEChem-03242010103D

 74 77  0     1  0  0  0  0  0999 V2000
    2.8769   -1.0249    0.2409 O   0  0  0  0  0  0  0  0  0  0  0  0
   -0.2175    0.5454   -0.9931 O   0  0  0  0  0  0  0  0  0  0  0  0
    1.5921    2.5126   -1.3953 O   0  0  0  0  0  0  0  0  0  0  0  0
    3.9445    3.5467   -1.0137 O   0  0  0  0  0  0  0  0  0  0  0  0
   -1.6746   -3.7503    2.3612 O   0  0  0  0  0  0  0  0  0  0  0  0
    0.2235   -4.9341   -1.8734 O   0  0  0  0  0  0  0  0  0  0  0  0
    7.1999    0.7526    1.0158 O   0  0  0  0  0  0  0  0  0  0  0  0
   -1.4445   -5.5339    0.2552 O   0  0  0  0  0  0  0  0  0  0  0  0
    0.0713    1.5877    1.0390 O   0  0  0  0  0  0  0  0  0  0  0  0
   -5.1023    0.1869   -1.4405 O   0  0  0  0  0  0  0  0  0  0  0  0
   -4.3625    4.1834    1.0932 O   0  0  0  0  0  0  0  0  0  0  0  0
   -6.0870    2.4924   -0.2632 O   0  0  0  0  0  0  0  0  0  0  0  0
    1.4825   -0.6814    0.2100 C   0  0  1  0  0  0  0  0  0  0  0  0
    1.1488    0.1706   -1.0159 C   0  0  2  0  0  0  0  0  0  0  0  0
    0.6992   -1.9806    0.2222 C   0  0  0  0  0  0  0  0  0  0  0  0
    1.9847    1.4311   -0.9739 C   0  0  0  0  0  0  0  0  0  0  0  0
    3.3439    1.2766   -0.4194 C   0  0  0  0  0  0  0  0  0  0  0  0
    3.7159    0.0526    0.1411 C   0  0  0  0  0  0  0  0  0  0  0  0
    4.2571    2.3329   -0.4798 C   0  0  0  0  0  0  0  0  0  0  0  0
    0.8197   -2.8740   -0.8401 C   0  0  0  0  0  0  0  0  0  0  0  0
   -0.1378   -2.2765    1.2960 C   0  0  0  0  0  0  0  0  0  0  0  0
    5.0181   -0.1258    0.6111 C   0  0  0  0  0  0  0  0  0  0  0  0
   -0.8574   -3.4714    1.3076 C   0  0  0  0  0  0  0  0  0  0  0  0
    0.0999   -4.0688   -0.8286 C   0  0  0  0  0  0  0  0  0  0  0  0
    5.9330    0.9256    0.5484 C   0  0  0  0  0  0  0  0  0  0  0  0
    5.5517    2.1538    0.0084 C   0  0  0  0  0  0  0  0  0  0  0  0
   -0.7386   -4.3675    0.2452 C   0  0  0  0  0  0  0  0  0  0  0  0
   -0.6298    1.2546    0.0963 C   0  0  0  0  0  0  0  0  0  0  0  0
   -2.0746    1.5829   -0.0003 C   0  0  0  0  0  0  0  0  0  0  0  0
   -2.5368    2.7382    0.5960 C   0  0  0  0  0  0  0  0  0  0  0  0
   -2.9104    0.7218   -0.6813 C   0  0  0  0  0  0  0  0  0  0  0  0
    3.4069    4.5257   -0.1269 C   0  0  0  0  0  0  0  0  0  0  0  0
   -4.2681    1.0297   -0.7700 C   0  0  0  0  0  0  0  0  0  0  0  0
   -3.8945    3.0460    0.5073 C   0  0  0  0  0  0  0  0  0  0  0  0
   -4.7600    2.1918   -0.1757 C   0  0  0  0  0  0  0  0  0  0  0  0
   -3.0267   -3.3062    2.2683 C   0  0  0  0  0  0  0  0  0  0  0  0
    1.1014   -4.5526   -2.9307 C   0  0  0  0  0  0  0  0  0  0  0  0
    8.0844    1.8680    0.9215 C   0  0  0  0  0  0  0  0  0  0  0  0
   -0.8168   -6.6649    0.8547 C   0  0  0  0  0  0  0  0  0  0  0  0
   -5.7153   -0.8555   -0.6843 C   0  0  0  0  0  0  0  0  0  0  0  0
   -4.7999    4.0825    2.4468 C   0  0  0  0  0  0  0  0  0  0  0  0
   -6.5005    3.2765   -1.3799 C   0  0  0  0  0  0  0  0  0  0  0  0
    1.3020   -0.1841    1.1662 H   0  0  0  0  0  0  0  0  0  0  0  0
    1.3662   -0.3296   -1.9658 H   0  0  0  0  0  0  0  0  0  0  0  0
    1.4954   -2.6009   -1.6425 H   0  0  0  0  0  0  0  0  0  0  0  0
   -0.2374   -1.5833    2.1275 H   0  0  0  0  0  0  0  0  0  0  0  0
    5.3193   -1.0805    1.0355 H   0  0  0  0  0  0  0  0  0  0  0  0
    6.2211    3.0049   -0.0663 H   0  0  0  0  0  0  0  0  0  0  0  0
   -1.8658    3.4086    1.1259 H   0  0  0  0  0  0  0  0  0  0  0  0
   -2.5471   -0.1945   -1.1383 H   0  0  0  0  0  0  0  0  0  0  0  0
    2.9840    5.3365   -0.7264 H   0  0  0  0  0  0  0  0  0  0  0  0
    4.2048    4.9343    0.5009 H   0  0  0  0  0  0  0  0  0  0  0  0
    2.6173    4.1076    0.5061 H   0  0  0  0  0  0  0  0  0  0  0  0
   -3.5484   -3.6023    3.1823 H   0  0  0  0  0  0  0  0  0  0  0  0
   -3.0672   -2.2158    2.1790 H   0  0  0  0  0  0  0  0  0  0  0  0
   -3.5271   -3.7713    1.4130 H   0  0  0  0  0  0  0  0  0  0  0  0
    1.0748   -5.3546   -3.6759 H   0  0  0  0  0  0  0  0  0  0  0  0
    0.7576   -3.6420   -3.4332 H   0  0  0  0  0  0  0  0  0  0  0  0
    2.1383   -4.4748   -2.5864 H   0  0  0  0  0  0  0  0  0  0  0  0
    7.7350    2.7115    1.5265 H   0  0  0  0  0  0  0  0  0  0  0  0
    8.2663    2.1508   -0.1209 H   0  0  0  0  0  0  0  0  0  0  0  0
    9.0465    1.5532    1.3388 H   0  0  0  0  0  0  0  0  0  0  0  0
   -1.5015   -7.5145    0.7831 H   0  0  0  0  0  0  0  0  0  0  0  0
    0.1089   -6.9166    0.3275 H   0  0  0  0  0  0  0  0  0  0  0  0
   -0.6065   -6.4737    1.9117 H   0  0  0  0  0  0  0  0  0  0  0  0
   -6.3357   -0.4383    0.1151 H   0  0  0  0  0  0  0  0  0  0  0  0
   -4.9551   -1.5205   -0.2618 H   0  0  0  0  0  0  0  0  0  0  0  0
   -6.3537   -1.4361   -1.3557 H   0  0  0  0  0  0  0  0  0  0  0  0
   -3.9725    3.7772    3.0952 H   0  0  0  0  0  0  0  0  0  0  0  0
   -5.6272    3.3710    2.5327 H   0  0  0  0  0  0  0  0  0  0  0  0
   -5.1509    5.0671    2.7677 H   0  0  0  0  0  0  0  0  0  0  0  0
   -6.0065    4.2532   -1.3690 H   0  0  0  0  0  0  0  0  0  0  0  0
   -7.5806    3.4307   -1.3086 H   0  0  0  0  0  0  0  0  0  0  0  0
   -6.2829    2.7561   -2.3179 H   0  0  0  0  0  0  0  0  0  0  0  0
  1 13  1  0  0  0  0
  1 18  1  0  0  0  0
  2 14  1  0  0  0  0
  2 28  1  0  0  0  0
  3 16  2  0  0  0  0
  4 19  1  0  0  0  0
  4 32  1  0  0  0  0
  5 23  1  0  0  0  0
  5 36  1  0  0  0  0
  6 24  1  0  0  0  0
  6 37  1  0  0  0  0
  7 25  1  0  0  0  0
  7 38  1  0  0  0  0
  8 27  1  0  0  0  0
  8 39  1  0  0  0  0
  9 28  2  0  0  0  0
 10 33  1  0  0  0  0
 10 40  1  0  0  0  0
 11 34  1  0  0  0  0
 11 41  1  0  0  0  0
 12 35  1  0  0  0  0
 12 42  1  0  0  0  0
 13 14  1  0  0  0  0
 13 15  1  0  0  0  0
 13 43  1  0  0  0  0
 14 16  1  0  0  0  0
 14 44  1  0  0  0  0
 15 20  2  0  0  0  0
 15 21  1  0  0  0  0
 16 17  1  0  0  0  0
 17 18  2  0  0  0  0
 17 19  1  0  0  0  0
 18 22  1  0  0  0  0
 19 26  2  0  0  0  0
 20 24  1  0  0  0  0
 20 45  1  0  0  0  0
 21 23  2  0  0  0  0
 21 46  1  0  0  0  0
 22 25  2  0  0  0  0
 22 47  1  0  0  0  0
 23 27  1  0  0  0  0
 24 27  2  0  0  0  0
 25 26  1  0  0  0  0
 26 48  1  0  0  0  0
 28 29  1  0  0  0  0
 29 30  2  0  0  0  0
 29 31  1  0  0  0  0
 30 34  1  0  0  0  0
 30 49  1  0  0  0  0
 31 33  2  0  0  0  0
 31 50  1  0  0  0  0
 32 51  1  0  0  0  0
 32 52  1  0  0  0  0
 32 53  1  0  0  0  0
 33 35  1  0  0  0  0
 34 35  2  0  0  0  0
 36 54  1  0  0  0  0
 36 55  1  0  0  0  0
 36 56  1  0  0  0  0
 37 57  1  0  0  0  0
 37 58  1  0  0  0  0
 37 59  1  0  0  0  0
 38 60  1  0  0  0  0
 38 61  1  0  0  0  0
 38 62  1  0  0  0  0
 39 63  1  0  0  0  0
 39 64  1  0  0  0  0
 39 65  1  0  0  0  0
 40 66  1  0  0  0  0
 40 67  1  0  0  0  0
 40 68  1  0  0  0  0
 41 69  1  0  0  0  0
 41 70  1  0  0  0  0
 41 71  1  0  0  0  0
 42 72  1  0  0  0  0
 42 73  1  0  0  0  0
 42 74  1  0  0  0  0
M  END
> <PUBCHEM_COMPOUND_CID>
21721877

> <PUBCHEM_CONFORMER_RMSD>
1.2

> <PUBCHEM_CONFORMER_DIVERSEORDER>
1
14
13
2
21
10
16
5
18
4
3
17
12
9
19
20
11
8
15
7
6

> <PUBCHEM_MMFF94_PARTIAL_CHARGES>
48
1 -0.36
10 -0.36
11 -0.36
12 -0.36
13 0.42
14 0.34
15 -0.14
16 0.42
17 0.09
18 0.08
19 0.08
2 -0.43
20 -0.15
21 -0.15
22 -0.15
23 0.08
24 0.08
25 0.08
26 -0.15
27 0.08
28 0.63
29 0.09
3 -0.57
30 -0.15
31 -0.15
32 0.28
33 0.08
34 0.08
35 0.08
36 0.28
37 0.28
38 0.28
39 0.28
4 -0.36
40 0.28
41 0.28
42 0.28
45 0.15
46 0.15
47 0.15
48 0.15
49 0.15
5 -0.36
50 0.15
6 -0.36
7 -0.36
8 -0.36
9 -0.57

> <PUBCHEM_EFFECTIVE_ROTOR_COUNT>
12.6

> <PUBCHEM_PHARMACOPHORE_FEATURES>
15
1 1 acceptor
1 10 acceptor
1 11 acceptor
1 12 acceptor
1 3 acceptor
1 4 acceptor
1 5 acceptor
1 6 acceptor
1 7 acceptor
1 8 acceptor
1 9 acceptor
6 1 13 14 16 17 18 rings
6 15 20 21 23 24 27 rings
6 17 18 19 22 25 26 rings
6 29 30 31 33 34 35 rings

> <PUBCHEM_HEAVY_ATOM_COUNT>
42

> <PUBCHEM_ATOM_DEF_STEREO_COUNT>
2

> <PUBCHEM_ATOM_UDEF_STEREO_COUNT>
0

> <PUBCHEM_BOND_DEF_STEREO_COUNT>
0

> <PUBCHEM_BOND_UDEF_STEREO_COUNT>
0

> <PUBCHEM_ISOTOPIC_ATOM_COUNT>
0

> <PUBCHEM_COMPONENT_COUNT>
1

> <PUBCHEM_CACTVS_TAUTO_COUNT>
2

> <PUBCHEM_CONFORMER_ID>
014B731500000001

> <PUBCHEM_MMFF94_ENERGY>
211.9978

> <PUBCHEM_FEATURE_SELFOVERLAP>
76.2

> <PUBCHEM_SHAPE_FINGERPRINT>
11991303 11 18113897216720976654
12741549 16 16453169775613929879
12788726 201 17613175361024688452
12977781 61 18058470806043746022
13692114 37 18341039821870648727
13726171 33 17202772480070991873
14725015 67 17906731407115435694
15001296 14 17979350864468671383
15131766 46 15431742028712710796
15200665 1 18335134357971623232
15347590 135 18271258149101165361
15484559 13 18265050236907896838
15538507 32 17980478181509214405
15664445 248 17833830473829544047
15775530 1 18193869039679557414
15968369 26 18337124357927343078
16993438 75 18262801903592105979
19319366 153 18341607058766044325
20028762 73 18269830926650880052
20511986 3 17985532378490587757
20587220 17 17698479575476227697
21133410 90 17198838681086079683
21792964 463 17027698609020811636
38695281 34 18336823108878963717
4017518 198 18201441351408009062
4409770 3 18265052620752227035
6058803 2 17841138958533344965
6691757 9 18412546539789012152
6700243 42 15971319198731266271
86090 222 16811557382548560561

> <PUBCHEM_SHAPE_MULTIPOLES>
793.91
14.17
8.85
1.8
8.73
12.87
-0.05
-21.04
-1.69
-5.96
-0.85
-1.3
1.4
0.58

> <PUBCHEM_SHAPE_SELFOVERLAP>
1722.557

> <PUBCHEM_SHAPE_VOLUME>
434.5

> <PUBCHEM_COORDINATE_TYPE>
2
5
10

$$$$