20
 OpenBabel03292022253D

 88 92  0  0  1  0  0  0  0  0999 V2000
    1.1368    0.4129    0.3745 C   0  0  0  0  0  0  0  0  0  0  0  0
    2.4093   -0.0376   -0.0779 O   0  0  0  0  0  0  0  0  0  0  0  0
    2.9121    0.5933   -1.1786 C   0  0  0  0  0  0  0  0  0  0  0  0
    2.5638    1.8613   -1.6251 C   0  0  0  0  0  0  0  0  0  0  0  0
    3.1592    2.4638   -2.7634 C   0  0  0  0  0  0  0  0  0  0  0  0
    2.5772    3.6870   -2.9259 O   0  0  0  0  0  0  0  0  0  0  0  0
    2.9434    4.6116   -3.9247 C   0  0  0  0  0  0  0  0  0  0  0  0
    4.1619    1.7611   -3.4610 C   0  0  0  0  0  0  0  0  0  0  0  0
    4.5239    0.4880   -2.9707 C   0  0  0  0  0  0  0  0  0  0  0  0
    3.8946   -0.0940   -1.8641 C   0  0  0  0  0  0  0  0  0  0  0  0
    5.5503   -0.2858   -3.4580 O   0  0  0  0  0  0  0  0  0  0  0  0
    6.5849    0.4431   -4.1392 C   0  0  2  0  0  0  0  0  0  0  0  0
    7.5147    1.2299   -3.2045 C   0  0  0  0  0  0  0  0  0  0  0  0
    7.3977    1.1507   -1.8111 C   0  0  0  0  0  0  0  0  0  0  0  0
    8.2294    1.8828   -0.9563 C   0  0  0  0  0  0  0  0  0  0  0  0
    8.1147    1.8409    0.4145 O   0  0  0  0  0  0  0  0  0  0  0  0
    7.4229    0.7210    0.9580 C   0  0  0  0  0  0  0  0  0  0  0  0
    9.2271    2.7179   -1.4921 C   0  0  0  0  0  0  0  0  0  0  0  0
    9.9192    3.4686   -0.5704 O   0  0  0  0  0  0  0  0  0  0  0  0
   11.2988    3.6962   -0.8215 C   0  0  0  0  0  0  0  0  0  0  0  0
    9.3874    2.7862   -2.8892 C   0  0  0  0  0  0  0  0  0  0  0  0
   10.3864    3.5768   -3.3960 O   0  0  0  0  0  0  0  0  0  0  0  0
   10.1588    4.1523   -4.6778 C   0  0  0  0  0  0  0  0  0  0  0  0
    8.5511    2.0223   -3.7241 C   0  0  0  0  0  0  0  0  0  0  0  0
    5.9455    1.2602   -5.2647 C   0  0  1  0  0  0  0  0  0  0  0  0
    5.2842    0.4551   -6.2689 O   0  0  0  0  0  0  0  0  0  0  0  0
    6.1489   -0.1611   -7.1138 C   0  0  0  0  0  0  0  0  0  0  0  0
    7.3612   -0.1808   -6.9658 O   0  0  0  0  0  0  0  0  0  0  0  0
    5.4677   -0.7969   -8.2745 C   0  0  0  0  0  0  0  0  0  0  0  0
    4.0921   -0.6991   -8.5207 C   0  0  0  0  0  0  0  0  0  0  0  0
    3.5417   -1.3075   -9.6581 C   0  0  0  0  0  0  0  0  0  0  0  0
    4.3653   -1.9947  -10.5487 C   0  0  0  0  0  0  0  0  0  0  0  0
    3.8316   -2.5379  -11.6538 F   0  0  0  0  0  0  0  0  0  0  0  0
    5.7441   -2.0442  -10.3497 C   0  0  0  0  0  0  0  0  0  0  0  0
    6.5660   -2.6235  -11.3438 N   0  0  0  0  0  0  0  0  0  0  0  0
    7.7800   -2.0614  -11.6968 C   0  0  0  0  0  0  0  0  0  0  0  0
    8.2497   -1.0352  -11.2193 O   0  0  0  0  0  0  0  0  0  0  0  0
    8.4562   -2.7710  -12.8104 C   0  0  0  0  0  0  0  0  0  0  0  0
    9.5034   -2.1709  -13.4006 C   0  0  0  0  0  0  0  0  0  0  0  0
   10.3120   -2.7497  -14.4801 C   0  0  0  0  0  0  0  0  0  0  0  0
   11.6647   -2.4156  -14.5642 C   0  0  0  0  0  0  0  0  0  0  0  0
   12.4484   -2.9263  -15.5978 C   0  0  0  0  0  0  0  0  0  0  0  0
   11.9031   -3.7670  -16.5793 C   0  0  0  0  0  0  0  0  0  0  0  0
   12.8462   -4.1574  -17.4965 O   0  0  0  0  0  0  0  0  0  0  0  0
   12.4725   -5.0505  -18.5301 C   0  0  0  0  0  0  0  0  0  0  0  0
   10.5426   -4.0864  -16.5285 C   0  0  0  0  0  0  0  0  0  0  0  0
   10.0150   -4.8831  -17.5114 O   0  0  0  0  0  0  0  0  0  0  0  0
    8.6411   -5.2343  -17.4387 C   0  0  0  0  0  0  0  0  0  0  0  0
    9.7621   -3.5735  -15.4738 C   0  0  0  0  0  0  0  0  0  0  0  0
    6.2833   -1.4756   -9.1926 C   0  0  0  0  0  0  0  0  0  0  0  0
    4.9043    2.1976   -4.6864 C   0  0  0  0  0  0  0  0  0  0  0  0
    4.6851    3.2516   -5.2742 O   0  0  0  0  0  0  0  0  0  0  0  0
    0.8211   -0.2439    1.1907 H   0  0  0  0  0  0  0  0  0  0  0  0
    0.3921    0.3386   -0.4251 H   0  0  0  0  0  0  0  0  0  0  0  0
    1.1888    1.4307    0.7734 H   0  0  0  0  0  0  0  0  0  0  0  0
    1.8201    2.4444   -1.0856 H   0  0  0  0  0  0  0  0  0  0  0  0
    2.3390    5.5118   -3.7698 H   0  0  0  0  0  0  0  0  0  0  0  0
    2.6798    4.2366   -4.9162 H   0  0  0  0  0  0  0  0  0  0  0  0
    3.9877    4.9173   -3.8214 H   0  0  0  0  0  0  0  0  0  0  0  0
    4.2085   -1.0754   -1.5148 H   0  0  0  0  0  0  0  0  0  0  0  0
    7.2176   -0.3437   -4.5641 H   0  0  0  0  0  0  0  0  0  0  0  0
    6.6361    0.5106   -1.3845 H   0  0  0  0  0  0  0  0  0  0  0  0
    7.5725    0.7229    2.0420 H   0  0  0  0  0  0  0  0  0  0  0  0
    7.8224   -0.2219    0.5692 H   0  0  0  0  0  0  0  0  0  0  0  0
    6.3456    0.7981    0.7754 H   0  0  0  0  0  0  0  0  0  0  0  0
   11.7511    4.0376    0.1156 H   0  0  0  0  0  0  0  0  0  0  0  0
   11.4449    4.5033   -1.5441 H   0  0  0  0  0  0  0  0  0  0  0  0
   11.8152    2.7800   -1.1259 H   0  0  0  0  0  0  0  0  0  0  0  0
   10.9229    4.9194   -4.8362 H   0  0  0  0  0  0  0  0  0  0  0  0
    9.1787    4.6373   -4.7306 H   0  0  0  0  0  0  0  0  0  0  0  0
   10.2756    3.4067   -5.4699 H   0  0  0  0  0  0  0  0  0  0  0  0
    8.7161    2.0267   -4.7982 H   0  0  0  0  0  0  0  0  0  0  0  0
    6.6884    1.8950   -5.7650 H   0  0  0  0  0  0  0  0  0  0  0  0
    3.4422   -0.1402   -7.8518 H   0  0  0  0  0  0  0  0  0  0  0  0
    2.4805   -1.2205   -9.8742 H   0  0  0  0  0  0  0  0  0  0  0  0
    6.1045   -3.2191  -12.0215 H   0  0  0  0  0  0  0  0  0  0  0  0
    8.1156   -3.7624  -13.0765 H   0  0  0  0  0  0  0  0  0  0  0  0
    9.8204   -1.1831  -13.0654 H   0  0  0  0  0  0  0  0  0  0  0  0
   12.1255   -1.7632  -13.8231 H   0  0  0  0  0  0  0  0  0  0  0  0
   13.5048   -2.6607  -15.6455 H   0  0  0  0  0  0  0  0  0  0  0  0
   13.3742   -5.2955  -19.1000 H   0  0  0  0  0  0  0  0  0  0  0  0
   11.7690   -4.5774  -19.2247 H   0  0  0  0  0  0  0  0  0  0  0  0
   12.0835   -5.9947  -18.1286 H   0  0  0  0  0  0  0  0  0  0  0  0
    8.4156   -5.8782  -18.2967 H   0  0  0  0  0  0  0  0  0  0  0  0
    8.0012   -4.3495  -17.5125 H   0  0  0  0  0  0  0  0  0  0  0  0
    8.4277   -5.8074  -16.5301 H   0  0  0  0  0  0  0  0  0  0  0  0
    8.6954   -3.7832  -15.4227 H   0  0  0  0  0  0  0  0  0  0  0  0
    7.3537   -1.5471   -9.0027 H   0  0  0  0  0  0  0  0  0  0  0  0
  1  2  1  0  0  0  0
  1 53  1  0  0  0  0
  1 54  1  0  0  0  0
  1 55  1  0  0  0  0
  2  3  1  0  0  0  0
  3  4  1  0  0  0  0
  3 10  2  0  0  0  0
  4  5  2  0  0  0  0
  4 56  1  0  0  0  0
  5  6  1  0  0  0  0
  5  8  1  0  0  0  0
  6  7  1  0  0  0  0
  7 57  1  0  0  0  0
  7 58  1  0  0  0  0
  7 59  1  0  0  0  0
  8  9  2  0  0  0  0
  8 51  1  0  0  0  0
  9 10  1  0  0  0  0
  9 11  1  0  0  0  0
 10 60  1  0  0  0  0
 11 12  1  0  0  0  0
 12 13  1  0  0  0  0
 12 25  1  0  0  0  0
 12 61  1  6  0  0  0
 13 14  1  0  0  0  0
 13 24  2  0  0  0  0
 14 15  2  0  0  0  0
 14 62  1  0  0  0  0
 15 16  1  0  0  0  0
 15 18  1  0  0  0  0
 16 17  1  0  0  0  0
 17 63  1  0  0  0  0
 17 64  1  0  0  0  0
 17 65  1  0  0  0  0
 18 19  1  0  0  0  0
 18 21  2  0  0  0  0
 19 20  1  0  0  0  0
 20 66  1  0  0  0  0
 20 67  1  0  0  0  0
 20 68  1  0  0  0  0
 21 22  1  0  0  0  0
 21 24  1  0  0  0  0
 22 23  1  0  0  0  0
 23 69  1  0  0  0  0
 23 70  1  0  0  0  0
 23 71  1  0  0  0  0
 24 72  1  0  0  0  0
 25 51  1  0  0  0  0
 25 26  1  0  0  0  0
 25 73  1  6  0  0  0
 26 27  1  0  0  0  0
 27 28  2  0  0  0  0
 27 29  1  0  0  0  0
 29 30  1  0  0  0  0
 29 50  2  0  0  0  0
 30 31  2  0  0  0  0
 30 74  1  0  0  0  0
 31 32  1  0  0  0  0
 31 75  1  0  0  0  0
 32 33  1  0  0  0  0
 32 34  2  0  0  0  0
 34 35  1  0  0  0  0
 34 50  1  0  0  0  0
 35 36  1  0  0  0  0
 35 76  1  0  0  0  0
 36 37  2  0  0  0  0
 36 38  1  0  0  0  0
 38 39  2  0  0  0  0
 38 77  1  0  0  0  0
 39 40  1  0  0  0  0
 39 78  1  0  0  0  0
 40 41  1  0  0  0  0
 40 49  2  0  0  0  0
 41 42  2  0  0  0  0
 41 79  1  0  0  0  0
 42 43  1  0  0  0  0
 42 80  1  0  0  0  0
 43 44  1  0  0  0  0
 43 46  2  0  0  0  0
 44 45  1  0  0  0  0
 45 81  1  0  0  0  0
 45 82  1  0  0  0  0
 45 83  1  0  0  0  0
 46 47  1  0  0  0  0
 46 49  1  0  0  0  0
 47 48  1  0  0  0  0
 48 84  1  0  0  0  0
 48 85  1  0  0  0  0
 48 86  1  0  0  0  0
 49 87  1  0  0  0  0
 50 88  1  0  0  0  0
 51 52  2  0  0  0  0
M  END
>  <Energy>
200.635

$$$$