122179385
  -OEChem-03242010103D

 67 70  0     1  0  0  0  0  0999 V2000
    2.2996    1.1731   -0.4028 O   0  0  0  0  0  0  0  0  0  0  0  0
   -0.5023   -1.2024    0.0348 O   0  0  0  0  0  0  0  0  0  0  0  0
    4.2437   -3.2302    0.1338 O   0  0  0  0  0  0  0  0  0  0  0  0
    6.9991    0.6096   -0.4177 O   0  0  0  0  0  0  0  0  0  0  0  0
   -2.5832    3.4877   -2.2430 O   0  0  0  0  0  0  0  0  0  0  0  0
   -1.2361    3.7784    2.3438 O   0  0  0  0  0  0  0  0  0  0  0  0
   -2.8595    4.6271    0.2661 O   0  0  0  0  0  0  0  0  0  0  0  0
   -0.6323   -1.9594    2.2050 O   0  0  0  0  0  0  0  0  0  0  0  0
   -6.1263   -3.8818   -0.4267 O   0  0  0  0  0  0  0  0  0  0  0  0
    0.7804   -0.6413    0.2926 C   0  0  2  0  0  0  0  0  0  0  0  0
    1.0099    0.5763   -0.6138 C   0  0  1  0  0  0  0  0  0  0  0  0
    1.8446   -1.6958    0.0000 C   0  0  0  0  0  0  0  0  0  0  0  0
    3.2038   -1.0745   -0.1112 C   0  0  0  0  0  0  0  0  0  0  0  0
   -0.0253    1.6604   -0.3781 C   0  0  0  0  0  0  0  0  0  0  0  0
    3.3520    0.3017   -0.3154 C   0  0  0  0  0  0  0  0  0  0  0  0
    4.3475   -1.8810   -0.0386 C   0  0  0  0  0  0  0  0  0  0  0  0
    4.6269    0.8670   -0.4068 C   0  0  0  0  0  0  0  0  0  0  0  0
   -0.1609    2.2323    0.8867 C   0  0  0  0  0  0  0  0  0  0  0  0
   -0.8414    2.0851   -1.4267 C   0  0  0  0  0  0  0  0  0  0  0  0
    5.6193   -1.3166   -0.1419 C   0  0  0  0  0  0  0  0  0  0  0  0
    5.7588    0.0575   -0.3219 C   0  0  0  0  0  0  0  0  0  0  0  0
   -1.7930    3.0818   -1.2103 C   0  0  0  0  0  0  0  0  0  0  0  0
   -1.1125    3.2292    1.1032 C   0  0  0  0  0  0  0  0  0  0  0  0
   -1.0971   -1.8347    1.0825 C   0  0  0  0  0  0  0  0  0  0  0  0
   -1.9285    3.6537    0.0546 C   0  0  0  0  0  0  0  0  0  0  0  0
   -2.4225   -2.3733    0.6855 C   0  0  0  0  0  0  0  0  0  0  0  0
    4.1628   -4.0276   -1.0451 C   0  0  0  0  0  0  0  0  0  0  0  0
   -3.1689   -1.7312   -0.3025 C   0  0  0  0  0  0  0  0  0  0  0  0
   -2.9210   -3.5222    1.3000 C   0  0  0  0  0  0  0  0  0  0  0  0
    8.1132   -0.2769   -0.3223 C   0  0  0  0  0  0  0  0  0  0  0  0
   -3.8168    2.7952   -2.4258 C   0  0  0  0  0  0  0  0  0  0  0  0
   -0.3630    3.2876    3.3594 C   0  0  0  0  0  0  0  0  0  0  0  0
   -2.4443    5.9752    0.0586 C   0  0  0  0  0  0  0  0  0  0  0  0
   -4.4134   -2.2381   -0.6764 C   0  0  0  0  0  0  0  0  0  0  0  0
   -4.1654   -4.0290    0.9262 C   0  0  0  0  0  0  0  0  0  0  0  0
   -4.9117   -3.3870   -0.0621 C   0  0  0  0  0  0  0  0  0  0  0  0
   -6.8359   -3.1759   -1.4436 C   0  0  0  0  0  0  0  0  0  0  0  0
    0.8801   -0.3325    1.3425 H   0  0  0  0  0  0  0  0  0  0  0  0
    0.9525    0.2646   -1.6666 H   0  0  0  0  0  0  0  0  0  0  0  0
    1.8238   -2.4531    0.7930 H   0  0  0  0  0  0  0  0  0  0  0  0
    1.6059   -2.2119   -0.9384 H   0  0  0  0  0  0  0  0  0  0  0  0
    4.7387    1.9391   -0.5501 H   0  0  0  0  0  0  0  0  0  0  0  0
    0.5071    1.8782    1.6634 H   0  0  0  0  0  0  0  0  0  0  0  0
   -0.7423    1.6446   -2.4157 H   0  0  0  0  0  0  0  0  0  0  0  0
    6.4606   -1.9984   -0.0726 H   0  0  0  0  0  0  0  0  0  0  0  0
    3.9964   -5.0658   -0.7449 H   0  0  0  0  0  0  0  0  0  0  0  0
    5.1021   -3.9727   -1.6044 H   0  0  0  0  0  0  0  0  0  0  0  0
    3.3313   -3.7112   -1.6818 H   0  0  0  0  0  0  0  0  0  0  0  0
   -2.8101   -0.8276   -0.7885 H   0  0  0  0  0  0  0  0  0  0  0  0
   -2.3503   -4.0357    2.0693 H   0  0  0  0  0  0  0  0  0  0  0  0
    9.0188    0.3313   -0.4171 H   0  0  0  0  0  0  0  0  0  0  0  0
    8.1254   -0.9982   -1.1465 H   0  0  0  0  0  0  0  0  0  0  0  0
    8.1572   -0.7644    0.6576 H   0  0  0  0  0  0  0  0  0  0  0  0
   -4.4549    2.9057   -1.5433 H   0  0  0  0  0  0  0  0  0  0  0  0
   -3.6353    1.7347   -2.6275 H   0  0  0  0  0  0  0  0  0  0  0  0
   -4.3309    3.2323   -3.2861 H   0  0  0  0  0  0  0  0  0  0  0  0
    0.6861    3.5014    3.1281 H   0  0  0  0  0  0  0  0  0  0  0  0
   -0.6018    3.8319    4.2791 H   0  0  0  0  0  0  0  0  0  0  0  0
   -0.5385    2.2260    3.5651 H   0  0  0  0  0  0  0  0  0  0  0  0
   -3.2938    6.6311    0.2676 H   0  0  0  0  0  0  0  0  0  0  0  0
   -2.1329    6.1270   -0.9797 H   0  0  0  0  0  0  0  0  0  0  0  0
   -1.6263    6.2356    0.7377 H   0  0  0  0  0  0  0  0  0  0  0  0
   -4.9414   -1.6886   -1.4483 H   0  0  0  0  0  0  0  0  0  0  0  0
   -4.5483   -4.9247    1.4078 H   0  0  0  0  0  0  0  0  0  0  0  0
   -7.7787   -3.7077   -1.6084 H   0  0  0  0  0  0  0  0  0  0  0  0
   -6.2926   -3.1863   -2.3946 H   0  0  0  0  0  0  0  0  0  0  0  0
   -7.0934   -2.1605   -1.1236 H   0  0  0  0  0  0  0  0  0  0  0  0
  1 11  1  0  0  0  0
  1 15  1  0  0  0  0
  2 10  1  0  0  0  0
  2 24  1  0  0  0  0
  3 16  1  0  0  0  0
  3 27  1  0  0  0  0
  4 21  1  0  0  0  0
  4 30  1  0  0  0  0
  5 22  1  0  0  0  0
  5 31  1  0  0  0  0
  6 23  1  0  0  0  0
  6 32  1  0  0  0  0
  7 25  1  0  0  0  0
  7 33  1  0  0  0  0
  8 24  2  0  0  0  0
  9 36  1  0  0  0  0
  9 37  1  0  0  0  0
 10 11  1  0  0  0  0
 10 12  1  0  0  0  0
 10 38  1  0  0  0  0
 11 14  1  0  0  0  0
 11 39  1  0  0  0  0
 12 13  1  0  0  0  0
 12 40  1  0  0  0  0
 12 41  1  0  0  0  0
 13 15  2  0  0  0  0
 13 16  1  0  0  0  0
 14 18  2  0  0  0  0
 14 19  1  0  0  0  0
 15 17  1  0  0  0  0
 16 20  2  0  0  0  0
 17 21  2  0  0  0  0
 17 42  1  0  0  0  0
 18 23  1  0  0  0  0
 18 43  1  0  0  0  0
 19 22  2  0  0  0  0
 19 44  1  0  0  0  0
 20 21  1  0  0  0  0
 20 45  1  0  0  0  0
 22 25  1  0  0  0  0
 23 25  2  0  0  0  0
 24 26  1  0  0  0  0
 26 28  2  0  0  0  0
 26 29  1  0  0  0  0
 27 46  1  0  0  0  0
 27 47  1  0  0  0  0
 27 48  1  0  0  0  0
 28 34  1  0  0  0  0
 28 49  1  0  0  0  0
 29 35  2  0  0  0  0
 29 50  1  0  0  0  0
 30 51  1  0  0  0  0
 30 52  1  0  0  0  0
 30 53  1  0  0  0  0
 31 54  1  0  0  0  0
 31 55  1  0  0  0  0
 31 56  1  0  0  0  0
 32 57  1  0  0  0  0
 32 58  1  0  0  0  0
 32 59  1  0  0  0  0
 33 60  1  0  0  0  0
 33 61  1  0  0  0  0
 33 62  1  0  0  0  0
 34 36  2  0  0  0  0
 34 63  1  0  0  0  0
 35 36  1  0  0  0  0
 35 64  1  0  0  0  0
 37 65  1  0  0  0  0
 37 66  1  0  0  0  0
 37 67  1  0  0  0  0
M  END
> <PUBCHEM_COMPOUND_CID>
122179385

> <PUBCHEM_CONFORMER_RMSD>
1.2

> <PUBCHEM_CONFORMER_DIVERSEORDER>
1
6
16
12
17
14
10
19
11
3
13
18
7
2
5
15
9
4
8

> <PUBCHEM_MMFF94_PARTIAL_CHARGES>
45
1 -0.36
10 0.28
11 0.42
12 0.14
13 -0.14
14 -0.14
15 0.08
16 0.08
17 -0.15
18 -0.15
19 -0.15
2 -0.43
20 -0.15
21 0.08
22 0.08
23 0.08
24 0.63
25 0.08
26 0.09
27 0.28
28 -0.15
29 -0.15
3 -0.36
30 0.28
31 0.28
32 0.28
33 0.28
34 -0.15
35 -0.15
36 0.08
37 0.28
4 -0.36
42 0.15
43 0.15
44 0.15
45 0.15
49 0.15
5 -0.36
50 0.15
6 -0.36
63 0.15
64 0.15
7 -0.36
8 -0.57
9 -0.36

> <PUBCHEM_EFFECTIVE_ROTOR_COUNT>
10.8

> <PUBCHEM_PHARMACOPHORE_FEATURES>
12
1 1 acceptor
1 3 acceptor
1 4 acceptor
1 5 acceptor
1 6 acceptor
1 7 acceptor
1 8 acceptor
1 9 acceptor
6 1 10 11 12 13 15 rings
6 13 15 16 17 20 21 rings
6 14 18 19 22 23 25 rings
6 26 28 29 34 35 36 rings

> <PUBCHEM_HEAVY_ATOM_COUNT>
37

> <PUBCHEM_ATOM_DEF_STEREO_COUNT>
2

> <PUBCHEM_ATOM_UDEF_STEREO_COUNT>
0

> <PUBCHEM_BOND_DEF_STEREO_COUNT>
0

> <PUBCHEM_BOND_UDEF_STEREO_COUNT>
0

> <PUBCHEM_ISOTOPIC_ATOM_COUNT>
0

> <PUBCHEM_COMPONENT_COUNT>
1

> <PUBCHEM_CACTVS_TAUTO_COUNT>
1

> <PUBCHEM_CONFORMER_ID>
07484F3900000001

> <PUBCHEM_MMFF94_ENERGY>
169.0516

> <PUBCHEM_FEATURE_SELFOVERLAP>
60.944

> <PUBCHEM_SHAPE_FINGERPRINT>
10050765 1 18337956663478136278
102385 1 18195817254146568694
10653451 467 17832973224053486496
10930396 42 17904455731493780064
11007060 377 18193840336724101000
11115154 58 18341333383782571203
11411753 29 17775292664968624968
11720765 8 18050850215458097953
12156800 1 18044343146335426633
12160290 23 17975170618989164531
12440605 4 18116718413060402370
12788726 201 18261386767523223002
13540713 5 18187930509475945074
13631057 29 18409730681914613350
140371 6 18042701653190697454
14068700 675 18335422430403170300
14681490 219 18334289903014247055
14790565 3 17687744939457448141
15131766 46 15911336914420740496
15200665 1 18049165471032597115
15351339 4 17968918848125998603
15927050 60 18047758100818745442
16988056 13 17975967984759323381
17138139 8 17908945913295184045
18365409 1 18336267821865026717
19301676 85 17044589942381994390
19319366 153 17336181559991659745
20642791 13 18333454231759915526
21033648 144 18193838142433448972
21049683 271 18122067764836112054
21133410 230 18196636605083903672
23559900 14 17903915909744379787
244849 19 17844501380670047218
255183 313 18193860166535561241
27425 322 17836363744261890860
283562 15 18334295366328445530
3383291 50 16825311009891842786
38695281 34 17615690635280319705
4408954 87 17412785772560488289
44317340 157 17762337321228265647
508180 173 18115862062060733851
57124632 79 17115513394622370337
5969126 39 18410571825263365310
6004065 56 18123750026317498442

> <PUBCHEM_SHAPE_MULTIPOLES>
708.62
14.19
7.9
1.85
16.63
6.24
0.87
-15.55
-5.34
-13.06
0.9
-1.97
1.91
1.04

> <PUBCHEM_SHAPE_SELFOVERLAP>
1530.678

> <PUBCHEM_SHAPE_VOLUME>
391.4

> <PUBCHEM_COORDINATE_TYPE>
2
5
10

$$$$