13984204
  -OEChem-03242010103D

 75 78  0     1  0  0  0  0  0999 V2000
    3.0505    0.9281   -0.2835 O   0  0  0  0  0  0  0  0  0  0  0  0
   -0.2112   -0.7968   -0.0129 O   0  0  0  0  0  0  0  0  0  0  0  0
    3.9747   -3.8180   -0.0059 O   0  0  0  0  0  0  0  0  0  0  0  0
    7.5125   -0.6502   -0.3011 O   0  0  0  0  0  0  0  0  0  0  0  0
   -1.1710    4.3620   -2.0088 O   0  0  0  0  0  0  0  0  0  0  0  0
    0.1171    4.0794    2.5956 O   0  0  0  0  0  0  0  0  0  0  0  0
   -1.2402    5.3849    0.5639 O   0  0  0  0  0  0  0  0  0  0  0  0
   -0.5479   -1.6329    2.1052 O   0  0  0  0  0  0  0  0  0  0  0  0
   -5.1399   -3.8274    1.2070 O   0  0  0  0  0  0  0  0  0  0  0  0
   -4.7805   -0.0766   -1.7491 O   0  0  0  0  0  0  0  0  0  0  0  0
   -6.2746   -2.1507   -0.6829 O   0  0  0  0  0  0  0  0  0  0  0  0
    1.1578   -0.5468    0.2881 C   0  0  2  0  0  0  0  0  0  0  0  0
    1.6660    0.6421   -0.5395 C   0  0  1  0  0  0  0  0  0  0  0  0
    1.9716   -1.7898   -0.0616 C   0  0  0  0  0  0  0  0  0  0  0  0
    3.4357   -1.4763   -0.1247 C   0  0  0  0  0  0  0  0  0  0  0  0
    0.8881    1.9111   -0.2441 C   0  0  0  0  0  0  0  0  0  0  0  0
    3.8851   -0.1566   -0.2426 C   0  0  0  0  0  0  0  0  0  0  0  0
    4.3741   -2.5166   -0.0939 C   0  0  0  0  0  0  0  0  0  0  0  0
    5.2543    0.1200   -0.2896 C   0  0  0  0  0  0  0  0  0  0  0  0
    0.8555    2.4232    1.0529 C   0  0  0  0  0  0  0  0  0  0  0  0
    0.2058    2.5656   -1.2697 C   0  0  0  0  0  0  0  0  0  0  0  0
    5.7400   -2.2397   -0.1531 C   0  0  0  0  0  0  0  0  0  0  0  0
    6.1800   -0.9215   -0.2470 C   0  0  0  0  0  0  0  0  0  0  0  0
   -0.5090    3.7323   -0.9981 C   0  0  0  0  0  0  0  0  0  0  0  0
    0.1406    3.5898    1.3245 C   0  0  0  0  0  0  0  0  0  0  0  0
   -0.9511   -1.3436    0.9894 C   0  0  0  0  0  0  0  0  0  0  0  0
   -0.5416    4.2442    0.2989 C   0  0  0  0  0  0  0  0  0  0  0  0
   -2.3535   -1.5551    0.5501 C   0  0  0  0  0  0  0  0  0  0  0  0
    3.7457   -4.5080   -1.2320 C   0  0  0  0  0  0  0  0  0  0  0  0
   -2.9211   -0.7091   -0.4028 C   0  0  0  0  0  0  0  0  0  0  0  0
   -3.1026   -2.6014    1.0883 C   0  0  0  0  0  0  0  0  0  0  0  0
    8.4043   -1.7629   -0.2530 C   0  0  0  0  0  0  0  0  0  0  0  0
   -4.4193   -2.8018    0.6737 C   0  0  0  0  0  0  0  0  0  0  0  0
   -4.2378   -0.9095   -0.8174 C   0  0  0  0  0  0  0  0  0  0  0  0
   -1.0865    3.7728   -3.3048 C   0  0  0  0  0  0  0  0  0  0  0  0
    0.8408    3.3499    3.5846 C   0  0  0  0  0  0  0  0  0  0  0  0
   -4.9868   -1.9559   -0.2792 C   0  0  0  0  0  0  0  0  0  0  0  0
   -2.6077    5.2339    0.9374 C   0  0  0  0  0  0  0  0  0  0  0  0
   -5.8915   -3.5471    2.3863 C   0  0  0  0  0  0  0  0  0  0  0  0
   -3.9474    0.9676   -2.2485 C   0  0  0  0  0  0  0  0  0  0  0  0
   -6.4790   -3.0128   -1.7998 C   0  0  0  0  0  0  0  0  0  0  0  0
    1.3009   -0.3297    1.3558 H   0  0  0  0  0  0  0  0  0  0  0  0
    1.5649    0.4107   -1.6095 H   0  0  0  0  0  0  0  0  0  0  0  0
    1.7698   -2.5694    0.6829 H   0  0  0  0  0  0  0  0  0  0  0  0
    1.6451   -2.1851   -1.0318 H   0  0  0  0  0  0  0  0  0  0  0  0
    5.6003    1.1480   -0.3657 H   0  0  0  0  0  0  0  0  0  0  0  0
    1.4144    1.8859    1.8105 H   0  0  0  0  0  0  0  0  0  0  0  0
    0.2642    2.1229   -2.2580 H   0  0  0  0  0  0  0  0  0  0  0  0
    6.4107   -3.0922   -0.1203 H   0  0  0  0  0  0  0  0  0  0  0  0
    3.0163   -3.9805   -1.8539 H   0  0  0  0  0  0  0  0  0  0  0  0
    4.6855   -4.6273   -1.7805 H   0  0  0  0  0  0  0  0  0  0  0  0
    3.3509   -5.5003   -0.9975 H   0  0  0  0  0  0  0  0  0  0  0  0
   -2.3095    0.1018   -0.7820 H   0  0  0  0  0  0  0  0  0  0  0  0
   -2.6667   -3.2682    1.8285 H   0  0  0  0  0  0  0  0  0  0  0  0
    9.4224   -1.3633   -0.3044 H   0  0  0  0  0  0  0  0  0  0  0  0
    8.2750   -2.4200   -1.1197 H   0  0  0  0  0  0  0  0  0  0  0  0
    8.3214   -2.3047    0.6953 H   0  0  0  0  0  0  0  0  0  0  0  0
   -0.0581    3.7723   -3.6819 H   0  0  0  0  0  0  0  0  0  0  0  0
   -1.5400    2.7762   -3.3267 H   0  0  0  0  0  0  0  0  0  0  0  0
   -1.6724    4.4020   -3.9830 H   0  0  0  0  0  0  0  0  0  0  0  0
    0.7091    3.8784    4.5345 H   0  0  0  0  0  0  0  0  0  0  0  0
    0.4328    2.3427    3.7234 H   0  0  0  0  0  0  0  0  0  0  0  0
    1.9157    3.3407    3.3738 H   0  0  0  0  0  0  0  0  0  0  0  0
   -3.1748    4.7487    0.1366 H   0  0  0  0  0  0  0  0  0  0  0  0
   -2.6928    4.6537    1.8616 H   0  0  0  0  0  0  0  0  0  0  0  0
   -3.0277    6.2286    1.1096 H   0  0  0  0  0  0  0  0  0  0  0  0
   -6.4156   -4.4595    2.6833 H   0  0  0  0  0  0  0  0  0  0  0  0
   -6.6324   -2.7645    2.1945 H   0  0  0  0  0  0  0  0  0  0  0  0
   -5.2267   -3.2439    3.2013 H   0  0  0  0  0  0  0  0  0  0  0  0
   -4.5379    1.5283   -2.9807 H   0  0  0  0  0  0  0  0  0  0  0  0
   -3.0769    0.5706   -2.7819 H   0  0  0  0  0  0  0  0  0  0  0  0
   -3.6680    1.6750   -1.4599 H   0  0  0  0  0  0  0  0  0  0  0  0
   -5.9767   -2.6181   -2.6886 H   0  0  0  0  0  0  0  0  0  0  0  0
   -6.1150   -4.0214   -1.5799 H   0  0  0  0  0  0  0  0  0  0  0  0
   -7.5527   -3.0652   -1.9999 H   0  0  0  0  0  0  0  0  0  0  0  0
  1 13  1  0  0  0  0
  1 17  1  0  0  0  0
  2 12  1  0  0  0  0
  2 26  1  0  0  0  0
  3 18  1  0  0  0  0
  3 29  1  0  0  0  0
  4 23  1  0  0  0  0
  4 32  1  0  0  0  0
  5 24  1  0  0  0  0
  5 35  1  0  0  0  0
  6 25  1  0  0  0  0
  6 36  1  0  0  0  0
  7 27  1  0  0  0  0
  7 38  1  0  0  0  0
  8 26  2  0  0  0  0
  9 33  1  0  0  0  0
  9 39  1  0  0  0  0
 10 34  1  0  0  0  0
 10 40  1  0  0  0  0
 11 37  1  0  0  0  0
 11 41  1  0  0  0  0
 12 13  1  0  0  0  0
 12 14  1  0  0  0  0
 12 42  1  0  0  0  0
 13 16  1  0  0  0  0
 13 43  1  0  0  0  0
 14 15  1  0  0  0  0
 14 44  1  0  0  0  0
 14 45  1  0  0  0  0
 15 17  2  0  0  0  0
 15 18  1  0  0  0  0
 16 20  2  0  0  0  0
 16 21  1  0  0  0  0
 17 19  1  0  0  0  0
 18 22  2  0  0  0  0
 19 23  2  0  0  0  0
 19 46  1  0  0  0  0
 20 25  1  0  0  0  0
 20 47  1  0  0  0  0
 21 24  2  0  0  0  0
 21 48  1  0  0  0  0
 22 23  1  0  0  0  0
 22 49  1  0  0  0  0
 24 27  1  0  0  0  0
 25 27  2  0  0  0  0
 26 28  1  0  0  0  0
 28 30  2  0  0  0  0
 28 31  1  0  0  0  0
 29 50  1  0  0  0  0
 29 51  1  0  0  0  0
 29 52  1  0  0  0  0
 30 34  1  0  0  0  0
 30 53  1  0  0  0  0
 31 33  2  0  0  0  0
 31 54  1  0  0  0  0
 32 55  1  0  0  0  0
 32 56  1  0  0  0  0
 32 57  1  0  0  0  0
 33 37  1  0  0  0  0
 34 37  2  0  0  0  0
 35 58  1  0  0  0  0
 35 59  1  0  0  0  0
 35 60  1  0  0  0  0
 36 61  1  0  0  0  0
 36 62  1  0  0  0  0
 36 63  1  0  0  0  0
 38 64  1  0  0  0  0
 38 65  1  0  0  0  0
 38 66  1  0  0  0  0
 39 67  1  0  0  0  0
 39 68  1  0  0  0  0
 39 69  1  0  0  0  0
 40 70  1  0  0  0  0
 40 71  1  0  0  0  0
 40 72  1  0  0  0  0
 41 73  1  0  0  0  0
 41 74  1  0  0  0  0
 41 75  1  0  0  0  0
M  END
> <PUBCHEM_COMPOUND_CID>
13984204

> <PUBCHEM_CONFORMER_RMSD>
1.2

> <PUBCHEM_CONFORMER_DIVERSEORDER>
1
3
2
4

> <PUBCHEM_MMFF94_PARTIAL_CHARGES>
47
1 -0.36
10 -0.36
11 -0.36
12 0.28
13 0.42
14 0.14
15 -0.14
16 -0.14
17 0.08
18 0.08
19 -0.15
2 -0.43
20 -0.15
21 -0.15
22 -0.15
23 0.08
24 0.08
25 0.08
26 0.63
27 0.08
28 0.09
29 0.28
3 -0.36
30 -0.15
31 -0.15
32 0.28
33 0.08
34 0.08
35 0.28
36 0.28
37 0.08
38 0.28
39 0.28
4 -0.36
40 0.28
41 0.28
46 0.15
47 0.15
48 0.15
49 0.15
5 -0.36
53 0.15
54 0.15
6 -0.36
7 -0.36
8 -0.57
9 -0.36

> <PUBCHEM_EFFECTIVE_ROTOR_COUNT>
12.8

> <PUBCHEM_PHARMACOPHORE_FEATURES>
14
1 1 acceptor
1 10 acceptor
1 11 acceptor
1 3 acceptor
1 4 acceptor
1 5 acceptor
1 6 acceptor
1 7 acceptor
1 8 acceptor
1 9 acceptor
6 1 12 13 14 15 17 rings
6 15 17 18 19 22 23 rings
6 16 20 21 24 25 27 rings
6 28 30 31 33 34 37 rings

> <PUBCHEM_HEAVY_ATOM_COUNT>
41

> <PUBCHEM_ATOM_DEF_STEREO_COUNT>
2

> <PUBCHEM_ATOM_UDEF_STEREO_COUNT>
0

> <PUBCHEM_BOND_DEF_STEREO_COUNT>
0

> <PUBCHEM_BOND_UDEF_STEREO_COUNT>
0

> <PUBCHEM_ISOTOPIC_ATOM_COUNT>
0

> <PUBCHEM_COMPONENT_COUNT>
1

> <PUBCHEM_CACTVS_TAUTO_COUNT>
1

> <PUBCHEM_CONFORMER_ID>
00D561CC00000001

> <PUBCHEM_MMFF94_ENERGY>
200.4617

> <PUBCHEM_FEATURE_SELFOVERLAP>
71.109

> <PUBCHEM_SHAPE_FINGERPRINT>
10050765 1 18123191204771731630
10462674 369 18335709376651544126
10653451 467 18047740787826771976
11093857 51 17176314141217864605
11331351 85 17631474330992326003
11720765 8 18268149953745507737
11991303 11 17686359576186335286
12342043 65 17389402707580641515
12440605 4 17973168322722166242
12788726 201 18336538314414909522
13631057 29 18410293580534187878
140371 6 18261125071234608022
14068700 675 17917429873658198691
14068700 686 18341332211377402614
14114211 80 16604097573060548581
150020 26 18192431003261315645
15200665 1 17763749788665431675
15351339 4 17822838802321563843
15890870 6 18119806912339877165
18365409 1 18193844734554867533
19301676 85 16327397151883670046
19319366 153 17118029631004131489
20642791 13 18263086531396415470
21049683 271 18191879018454216556
23559900 14 18118399790347288339
283562 15 18335703789426579682
3383291 50 16537081711892830578
4015057 19 18265052625532803059
4408954 87 17197450770857051977
50150288 127 17270876139520523985
5171179 24 17917411138869026832
59755656 520 17835240039489478804
6004065 56 18268706285175437706

> <PUBCHEM_SHAPE_MULTIPOLES>
779.2
15.16
7.88
2.31
12.59
8.57
0.49
-23.49
-3.1
-5.82
1.43
-2.78
2.4
2.48

> <PUBCHEM_SHAPE_SELFOVERLAP>
1676.33

> <PUBCHEM_SHAPE_VOLUME>
430.8

> <PUBCHEM_COORDINATE_TYPE>
2
5
10

$$$$