71492587
  -OEChem-03242010103D

 63 66  0     1  0  0  0  0  0999 V2000
   -1.2178    6.4746   -1.2060 F   0  0  0  0  0  0  0  0  0  0  0  0
    0.9689   -1.5228   -0.7793 O   0  0  0  0  0  0  0  0  0  0  0  0
    0.1807    0.7545    0.7982 O   0  0  0  0  0  0  0  0  0  0  0  0
    4.7598   -0.1417    1.9027 O   0  0  0  0  0  0  0  0  0  0  0  0
    5.3273   -1.4787   -2.6282 O   0  0  0  0  0  0  0  0  0  0  0  0
   -4.3330   -3.3512    1.2582 O   0  0  0  0  0  0  0  0  0  0  0  0
   -3.5922   -0.4144   -2.4518 O   0  0  0  0  0  0  0  0  0  0  0  0
   -5.3122   -1.9604   -0.9280 O   0  0  0  0  0  0  0  0  0  0  0  0
   -0.3336    1.6522    2.8547 O   0  0  0  0  0  0  0  0  0  0  0  0
    0.4679   -0.5049    1.4079 C   0  0  1  0  0  0  0  0  0  0  0  0
    0.1869   -1.6444    0.4197 C   0  0  1  0  0  0  0  0  0  0  0  0
    1.9385   -0.5399    1.8185 C   0  0  0  0  0  0  0  0  0  0  0  0
    2.8261   -0.7995    0.6312 C   0  0  0  0  0  0  0  0  0  0  0  0
   -1.2848   -1.7290    0.0594 C   0  0  0  0  0  0  0  0  0  0  0  0
    2.3022   -1.2760   -0.5771 C   0  0  0  0  0  0  0  0  0  0  0  0
    4.2066   -0.5814    0.7360 C   0  0  0  0  0  0  0  0  0  0  0  0
    3.1407   -1.4914   -1.6739 C   0  0  0  0  0  0  0  0  0  0  0  0
   -1.7744   -1.0273   -1.0423 C   0  0  0  0  0  0  0  0  0  0  0  0
   -2.1479   -2.5079    0.8298 C   0  0  0  0  0  0  0  0  0  0  0  0
    5.0444   -0.8104   -0.3560 C   0  0  0  0  0  0  0  0  0  0  0  0
    4.5110   -1.2611   -1.5613 C   0  0  0  0  0  0  0  0  0  0  0  0
   -3.5008   -2.5853    0.4986 C   0  0  0  0  0  0  0  0  0  0  0  0
   -3.1271   -1.1048   -1.3736 C   0  0  0  0  0  0  0  0  0  0  0  0
   -3.9902   -1.8838   -0.6033 C   0  0  0  0  0  0  0  0  0  0  0  0
   -0.2095    1.7439    1.6432 C   0  0  0  0  0  0  0  0  0  0  0  0
   -0.4767    2.9949    0.8895 C   0  0  0  0  0  0  0  0  0  0  0  0
    5.1832   -1.1362    2.8321 C   0  0  0  0  0  0  0  0  0  0  0  0
   -0.3123    3.0238   -0.4953 C   0  0  0  0  0  0  0  0  0  0  0  0
   -0.8917    4.1417    1.5666 C   0  0  0  0  0  0  0  0  0  0  0  0
    6.7190   -1.2228   -2.4436 C   0  0  0  0  0  0  0  0  0  0  0  0
   -3.7520   -4.0354    2.3666 C   0  0  0  0  0  0  0  0  0  0  0  0
   -2.6434    0.3577   -3.1854 C   0  0  0  0  0  0  0  0  0  0  0  0
   -6.1801   -0.9953   -0.3377 C   0  0  0  0  0  0  0  0  0  0  0  0
   -0.5630    4.1993   -1.2031 C   0  0  0  0  0  0  0  0  0  0  0  0
   -1.1424    5.3172    0.8589 C   0  0  0  0  0  0  0  0  0  0  0  0
   -0.9781    5.3460   -0.5259 C   0  0  0  0  0  0  0  0  0  0  0  0
   -0.1600   -0.6449    2.2981 H   0  0  0  0  0  0  0  0  0  0  0  0
    0.4677   -2.6047    0.8770 H   0  0  0  0  0  0  0  0  0  0  0  0
    2.0874   -1.3521    2.5397 H   0  0  0  0  0  0  0  0  0  0  0  0
    2.2191    0.4066    2.2945 H   0  0  0  0  0  0  0  0  0  0  0  0
    2.7271   -1.8455   -2.6152 H   0  0  0  0  0  0  0  0  0  0  0  0
   -1.0686   -0.4247   -1.6024 H   0  0  0  0  0  0  0  0  0  0  0  0
   -1.7109   -3.0279    1.6756 H   0  0  0  0  0  0  0  0  0  0  0  0
    6.1016   -0.6169   -0.2061 H   0  0  0  0  0  0  0  0  0  0  0  0
    5.5094   -0.6331    3.7465 H   0  0  0  0  0  0  0  0  0  0  0  0
    4.3667   -1.8199    3.0824 H   0  0  0  0  0  0  0  0  0  0  0  0
    6.0283   -1.6996    2.4237 H   0  0  0  0  0  0  0  0  0  0  0  0
    0.0094    2.1554   -1.0631 H   0  0  0  0  0  0  0  0  0  0  0  0
   -1.0256    4.1400    2.6451 H   0  0  0  0  0  0  0  0  0  0  0  0
    7.2172   -1.4471   -3.3925 H   0  0  0  0  0  0  0  0  0  0  0  0
    7.1540   -1.8877   -1.6897 H   0  0  0  0  0  0  0  0  0  0  0  0
    6.9087   -0.1663   -2.2254 H   0  0  0  0  0  0  0  0  0  0  0  0
   -3.0075   -4.7706    2.0426 H   0  0  0  0  0  0  0  0  0  0  0  0
   -3.3533   -3.3358    3.1093 H   0  0  0  0  0  0  0  0  0  0  0  0
   -4.5561   -4.5939    2.8572 H   0  0  0  0  0  0  0  0  0  0  0  0
   -2.2219    1.1643   -2.5760 H   0  0  0  0  0  0  0  0  0  0  0  0
   -1.8708   -0.2733   -3.6379 H   0  0  0  0  0  0  0  0  0  0  0  0
   -3.1851    0.8343   -4.0091 H   0  0  0  0  0  0  0  0  0  0  0  0
   -7.1965   -1.1861   -0.6929 H   0  0  0  0  0  0  0  0  0  0  0  0
   -5.8900    0.0172   -0.6355 H   0  0  0  0  0  0  0  0  0  0  0  0
   -6.1689   -1.0832    0.7533 H   0  0  0  0  0  0  0  0  0  0  0  0
   -0.4355    4.2224   -2.2814 H   0  0  0  0  0  0  0  0  0  0  0  0
   -1.4654    6.2103    1.3856 H   0  0  0  0  0  0  0  0  0  0  0  0
  1 36  1  0  0  0  0
  2 11  1  0  0  0  0
  2 15  1  0  0  0  0
  3 10  1  0  0  0  0
  3 25  1  0  0  0  0
  4 16  1  0  0  0  0
  4 27  1  0  0  0  0
  5 21  1  0  0  0  0
  5 30  1  0  0  0  0
  6 22  1  0  0  0  0
  6 31  1  0  0  0  0
  7 23  1  0  0  0  0
  7 32  1  0  0  0  0
  8 24  1  0  0  0  0
  8 33  1  0  0  0  0
  9 25  2  0  0  0  0
 10 11  1  0  0  0  0
 10 12  1  0  0  0  0
 10 37  1  0  0  0  0
 11 14  1  0  0  0  0
 11 38  1  0  0  0  0
 12 13  1  0  0  0  0
 12 39  1  0  0  0  0
 12 40  1  0  0  0  0
 13 15  2  0  0  0  0
 13 16  1  0  0  0  0
 14 18  2  0  0  0  0
 14 19  1  0  0  0  0
 15 17  1  0  0  0  0
 16 20  2  0  0  0  0
 17 21  2  0  0  0  0
 17 41  1  0  0  0  0
 18 23  1  0  0  0  0
 18 42  1  0  0  0  0
 19 22  2  0  0  0  0
 19 43  1  0  0  0  0
 20 21  1  0  0  0  0
 20 44  1  0  0  0  0
 22 24  1  0  0  0  0
 23 24  2  0  0  0  0
 25 26  1  0  0  0  0
 26 28  2  0  0  0  0
 26 29  1  0  0  0  0
 27 45  1  0  0  0  0
 27 46  1  0  0  0  0
 27 47  1  0  0  0  0
 28 34  1  0  0  0  0
 28 48  1  0  0  0  0
 29 35  2  0  0  0  0
 29 49  1  0  0  0  0
 30 50  1  0  0  0  0
 30 51  1  0  0  0  0
 30 52  1  0  0  0  0
 31 53  1  0  0  0  0
 31 54  1  0  0  0  0
 31 55  1  0  0  0  0
 32 56  1  0  0  0  0
 32 57  1  0  0  0  0
 32 58  1  0  0  0  0
 33 59  1  0  0  0  0
 33 60  1  0  0  0  0
 33 61  1  0  0  0  0
 34 36  2  0  0  0  0
 34 62  1  0  0  0  0
 35 36  1  0  0  0  0
 35 63  1  0  0  0  0
M  END
> <PUBCHEM_COMPOUND_CID>
71492587

> <PUBCHEM_CONFORMER_RMSD>
1

> <PUBCHEM_CONFORMER_DIVERSEORDER>
1
24
29
45
23
39
44
7
3
42
35
11
41
9
17
49
43
48
26
46
12
8
38
47
28
32
30
31
21
18
15
33
4
19
13
22
36
50
25
37
40
2
14
27
16
5
20
34
6
10

> <PUBCHEM_MMFF94_PARTIAL_CHARGES>
44
1 -0.19
10 0.28
11 0.42
12 0.14
13 -0.14
14 -0.14
15 0.08
16 0.08
17 -0.15
18 -0.15
19 -0.15
2 -0.36
20 -0.15
21 0.08
22 0.08
23 0.08
24 0.08
25 0.63
26 0.09
27 0.28
28 -0.15
29 -0.15
3 -0.43
30 0.28
31 0.28
32 0.28
33 0.28
34 -0.15
35 -0.15
36 0.19
4 -0.36
41 0.15
42 0.15
43 0.15
44 0.15
48 0.15
49 0.15
5 -0.36
6 -0.36
62 0.15
63 0.15
7 -0.36
8 -0.36
9 -0.57

> <PUBCHEM_EFFECTIVE_ROTOR_COUNT>
9.8

> <PUBCHEM_PHARMACOPHORE_FEATURES>
11
1 2 acceptor
1 4 acceptor
1 5 acceptor
1 6 acceptor
1 7 acceptor
1 8 acceptor
1 9 acceptor
6 13 15 16 17 20 21 rings
6 14 18 19 22 23 24 rings
6 2 10 11 12 13 15 rings
6 26 28 29 34 35 36 rings

> <PUBCHEM_HEAVY_ATOM_COUNT>
36

> <PUBCHEM_ATOM_DEF_STEREO_COUNT>
2

> <PUBCHEM_ATOM_UDEF_STEREO_COUNT>
0

> <PUBCHEM_BOND_DEF_STEREO_COUNT>
0

> <PUBCHEM_BOND_UDEF_STEREO_COUNT>
0

> <PUBCHEM_ISOTOPIC_ATOM_COUNT>
0

> <PUBCHEM_COMPONENT_COUNT>
1

> <PUBCHEM_CACTVS_TAUTO_COUNT>
1

> <PUBCHEM_CONFORMER_ID>
0442E3EB00000001

> <PUBCHEM_MMFF94_ENERGY>
152.4054

> <PUBCHEM_FEATURE_SELFOVERLAP>
55.866

> <PUBCHEM_SHAPE_FINGERPRINT>
10764073 3 13612593266465613268
10815517 723 18200050442964701945
11445158 3 17840608190353583503
11477941 20 18269017365894288532
11488393 25 17902512923778949817
11991303 11 17908442263300706629
12160290 23 18057319474938704482
12741549 16 18198889470338608667
12788726 201 18335698282719057359
133893 2 17549515849399895567
14294032 229 18122638149515670640
15198563 99 18339093604754153396
15219462 58 18268983207903584846
15444296 121 18266486281541949139
15463212 79 17689978056069002392
17357779 13 18059562603282152602
1813 80 18202004377615643682
18785283 64 17834396005063416523
19301676 85 16257041614878076190
21285901 2 18060697290971748766
21304303 282 17904455447076138024
21365058 113 18267878344387271127
21641784 216 18409732841967022540
21772528 278 17766011501264493501
23559900 14 17388521977450022743
24771750 20 17184199877135253004
24893989 43 16400198308177127653
437795 70 17771596041930060461
44802255 64 16390501559964120343
469060 322 18336832987477863665
46939830 39 18189354458501338289
5080951 261 17630036067063000350
5081480 168 18268695268752635021
6086070 43 18118378831192051987
9658208 31 17840586999005608504

> <PUBCHEM_SHAPE_MULTIPOLES>
686.63
11.2
6.85
2.87
9.44
15.52
-0.29
-13.13
-4.15
-8.27
0.97
1.73
-0.63
1.98

> <PUBCHEM_SHAPE_SELFOVERLAP>
1491.128

> <PUBCHEM_SHAPE_VOLUME>
378.3

> <PUBCHEM_COORDINATE_TYPE>
2
5
10

$$$$