122179378
  -OEChem-03242010103D

 77 80  0     1  0  0  0  0  0999 V2000
    2.8586   -1.1344   -0.2405 O   0  0  0  0  0  0  0  0  0  0  0  0
    0.8184    0.8986   -0.2212 O   0  0  0  0  0  0  0  0  0  0  0  0
    4.7835    2.9389    1.5413 O   0  0  0  0  0  0  0  0  0  0  0  0
    7.2330    0.1920   -1.4743 O   0  0  0  0  0  0  0  0  0  0  0  0
   -0.9868   -3.2590   -2.5917 O   0  0  0  0  0  0  0  0  0  0  0  0
   -1.7351   -4.1776    2.0487 O   0  0  0  0  0  0  0  0  0  0  0  0
   -2.4008   -4.5793   -0.6099 O   0  0  0  0  0  0  0  0  0  0  0  0
   -0.6235    2.2378    0.9831 O   0  0  0  0  0  0  0  0  0  0  0  0
   -5.9697    3.6028   -0.6450 O   0  0  0  0  0  0  0  0  0  0  0  0
   -6.2852    1.7643    1.4159 O   0  0  0  0  0  0  0  0  0  0  0  0
    1.3401    0.3617    0.9953 C   0  0  1  0  0  0  0  0  0  0  0  0
    1.8368   -1.0720    0.7675 C   0  0  1  0  0  0  0  0  0  0  0  0
    2.5017    1.2321    1.4705 C   0  0  0  0  0  0  0  0  0  0  0  0
    3.7532    0.9393    0.6878 C   0  0  0  0  0  0  0  0  0  0  0  0
    0.7026   -2.0104    0.3992 C   0  0  0  0  0  0  0  0  0  0  0  0
    3.8630   -0.2114   -0.1031 C   0  0  0  0  0  0  0  0  0  0  0  0
    4.8407    1.8203    0.7629 C   0  0  0  0  0  0  0  0  0  0  0  0
    5.0262   -0.4544   -0.8381 C   0  0  0  0  0  0  0  0  0  0  0  0
   -0.0076   -2.6729    1.4002 C   0  0  0  0  0  0  0  0  0  0  0  0
    0.3703   -2.2105   -0.9407 C   0  0  0  0  0  0  0  0  0  0  0  0
    6.0068    1.5687    0.0393 C   0  0  0  0  0  0  0  0  0  0  0  0
    6.0978    0.4342   -0.7639 C   0  0  0  0  0  0  0  0  0  0  0  0
   -0.1670    1.8353   -0.0780 C   0  0  0  0  0  0  0  0  0  0  0  0
   -0.6723   -3.0729   -1.2795 C   0  0  0  0  0  0  0  0  0  0  0  0
   -1.0504   -3.5353    1.0615 C   0  0  0  0  0  0  0  0  0  0  0  0
   -0.6053    2.3001   -1.4481 C   0  0  0  0  0  0  0  0  0  0  0  0
   -1.3826   -3.7354   -0.2785 C   0  0  0  0  0  0  0  0  0  0  0  0
   -1.7723    1.4723   -1.9852 C   0  0  0  0  0  0  0  0  0  0  0  0
   -2.9754    1.5521   -1.0817 C   0  0  0  0  0  0  0  0  0  0  0  0
    5.2226    2.8097    2.8914 C   0  0  0  0  0  0  0  0  0  0  0  0
    8.2904    1.1425   -1.3521 C   0  0  0  0  0  0  0  0  0  0  0  0
   -3.9303    2.5495   -1.2787 C   0  0  0  0  0  0  0  0  0  0  0  0
   -3.1342    0.6290   -0.0479 C   0  0  0  0  0  0  0  0  0  0  0  0
   -0.2112   -2.5437   -3.5517 C   0  0  0  0  0  0  0  0  0  0  0  0
   -1.3318   -3.9172    3.3918 C   0  0  0  0  0  0  0  0  0  0  0  0
   -3.7052   -4.0118   -0.7081 C   0  0  0  0  0  0  0  0  0  0  0  0
   -5.0440    2.6239   -0.4424 C   0  0  0  0  0  0  0  0  0  0  0  0
   -4.2478    0.7034    0.7885 C   0  0  0  0  0  0  0  0  0  0  0  0
   -5.2027    1.7009    0.5912 C   0  0  0  0  0  0  0  0  0  0  0  0
   -5.7322    4.5057   -1.7233 C   0  0  0  0  0  0  0  0  0  0  0  0
   -6.3722    0.7832    2.4475 C   0  0  0  0  0  0  0  0  0  0  0  0
    0.5587    0.3469    1.7668 H   0  0  0  0  0  0  0  0  0  0  0  0
    2.2909   -1.4548    1.6935 H   0  0  0  0  0  0  0  0  0  0  0  0
    2.7008    1.0141    2.5264 H   0  0  0  0  0  0  0  0  0  0  0  0
    2.2411    2.2923    1.3752 H   0  0  0  0  0  0  0  0  0  0  0  0
    5.1006   -1.3406   -1.4639 H   0  0  0  0  0  0  0  0  0  0  0  0
    0.2937   -2.4754    2.4234 H   0  0  0  0  0  0  0  0  0  0  0  0
    0.9406   -1.6627   -1.6821 H   0  0  0  0  0  0  0  0  0  0  0  0
    6.8073    2.2943    0.1407 H   0  0  0  0  0  0  0  0  0  0  0  0
    0.2464    2.2523   -2.1368 H   0  0  0  0  0  0  0  0  0  0  0  0
   -0.8741    3.3604   -1.3680 H   0  0  0  0  0  0  0  0  0  0  0  0
   -2.0374    1.8169   -2.9922 H   0  0  0  0  0  0  0  0  0  0  0  0
   -1.4704    0.4231   -2.0945 H   0  0  0  0  0  0  0  0  0  0  0  0
    5.0254    3.7536    3.4070 H   0  0  0  0  0  0  0  0  0  0  0  0
    4.6848    2.0102    3.4096 H   0  0  0  0  0  0  0  0  0  0  0  0
    6.2992    2.6142    2.9215 H   0  0  0  0  0  0  0  0  0  0  0  0
   -3.7515    3.2398   -2.0963 H   0  0  0  0  0  0  0  0  0  0  0  0
    9.1130    0.7933   -1.9848 H   0  0  0  0  0  0  0  0  0  0  0  0
    8.6735    1.1887   -0.3271 H   0  0  0  0  0  0  0  0  0  0  0  0
    7.9928    2.1266   -1.7297 H   0  0  0  0  0  0  0  0  0  0  0  0
   -2.4011   -0.1571    0.1132 H   0  0  0  0  0  0  0  0  0  0  0  0
    0.8412   -2.8469   -3.5283 H   0  0  0  0  0  0  0  0  0  0  0  0
   -0.5961   -2.8134   -4.5407 H   0  0  0  0  0  0  0  0  0  0  0  0
   -0.3372   -1.4608   -3.4482 H   0  0  0  0  0  0  0  0  0  0  0  0
   -1.9825   -4.5096    4.0436 H   0  0  0  0  0  0  0  0  0  0  0  0
   -1.4838   -2.8667    3.6625 H   0  0  0  0  0  0  0  0  0  0  0  0
   -0.3060   -4.2530    3.5780 H   0  0  0  0  0  0  0  0  0  0  0  0
   -4.4053   -4.8066   -0.9792 H   0  0  0  0  0  0  0  0  0  0  0  0
   -3.7326   -3.2412   -1.4852 H   0  0  0  0  0  0  0  0  0  0  0  0
   -4.0136   -3.5861    0.2521 H   0  0  0  0  0  0  0  0  0  0  0  0
   -4.3056   -0.0475    1.5689 H   0  0  0  0  0  0  0  0  0  0  0  0
   -6.5660    5.2154   -1.7383 H   0  0  0  0  0  0  0  0  0  0  0  0
   -5.7368    3.9907   -2.6900 H   0  0  0  0  0  0  0  0  0  0  0  0
   -4.8201    5.0916   -1.5661 H   0  0  0  0  0  0  0  0  0  0  0  0
   -7.2930    0.9830    3.0054 H   0  0  0  0  0  0  0  0  0  0  0  0
   -5.5441    0.8713    3.1591 H   0  0  0  0  0  0  0  0  0  0  0  0
   -6.4628   -0.2280    2.0363 H   0  0  0  0  0  0  0  0  0  0  0  0
  1 12  1  0  0  0  0
  1 16  1  0  0  0  0
  2 11  1  0  0  0  0
  2 23  1  0  0  0  0
  3 17  1  0  0  0  0
  3 30  1  0  0  0  0
  4 22  1  0  0  0  0
  4 31  1  0  0  0  0
  5 24  1  0  0  0  0
  5 34  1  0  0  0  0
  6 25  1  0  0  0  0
  6 35  1  0  0  0  0
  7 27  1  0  0  0  0
  7 36  1  0  0  0  0
  8 23  2  0  0  0  0
  9 37  1  0  0  0  0
  9 40  1  0  0  0  0
 10 39  1  0  0  0  0
 10 41  1  0  0  0  0
 11 12  1  0  0  0  0
 11 13  1  0  0  0  0
 11 42  1  0  0  0  0
 12 15  1  0  0  0  0
 12 43  1  0  0  0  0
 13 14  1  0  0  0  0
 13 44  1  0  0  0  0
 13 45  1  0  0  0  0
 14 16  2  0  0  0  0
 14 17  1  0  0  0  0
 15 19  2  0  0  0  0
 15 20  1  0  0  0  0
 16 18  1  0  0  0  0
 17 21  2  0  0  0  0
 18 22  2  0  0  0  0
 18 46  1  0  0  0  0
 19 25  1  0  0  0  0
 19 47  1  0  0  0  0
 20 24  2  0  0  0  0
 20 48  1  0  0  0  0
 21 22  1  0  0  0  0
 21 49  1  0  0  0  0
 23 26  1  0  0  0  0
 24 27  1  0  0  0  0
 25 27  2  0  0  0  0
 26 28  1  0  0  0  0
 26 50  1  0  0  0  0
 26 51  1  0  0  0  0
 28 29  1  0  0  0  0
 28 52  1  0  0  0  0
 28 53  1  0  0  0  0
 29 32  2  0  0  0  0
 29 33  1  0  0  0  0
 30 54  1  0  0  0  0
 30 55  1  0  0  0  0
 30 56  1  0  0  0  0
 31 58  1  0  0  0  0
 31 59  1  0  0  0  0
 31 60  1  0  0  0  0
 32 37  1  0  0  0  0
 32 57  1  0  0  0  0
 33 38  2  0  0  0  0
 33 61  1  0  0  0  0
 34 62  1  0  0  0  0
 34 63  1  0  0  0  0
 34 64  1  0  0  0  0
 35 65  1  0  0  0  0
 35 66  1  0  0  0  0
 35 67  1  0  0  0  0
 36 68  1  0  0  0  0
 36 69  1  0  0  0  0
 36 70  1  0  0  0  0
 37 39  2  0  0  0  0
 38 39  1  0  0  0  0
 38 71  1  0  0  0  0
 40 72  1  0  0  0  0
 40 73  1  0  0  0  0
 40 74  1  0  0  0  0
 41 75  1  0  0  0  0
 41 76  1  0  0  0  0
 41 77  1  0  0  0  0
M  END
> <PUBCHEM_COMPOUND_CID>
122179378

> <PUBCHEM_CONFORMER_RMSD>
1.2

> <PUBCHEM_CONFORMER_DIVERSEORDER>
5
26
25
10
22
46
36
45
21
37
24
9
42
28
1
16
30
33
27
2
4
14
8
6
47
3
44
13
7
40
32
35
43
38
11
41
31
23
39
29
12
15
20
18
19
34
17

> <PUBCHEM_MMFF94_PARTIAL_CHARGES>
48
1 -0.36
10 -0.36
11 0.28
12 0.42
13 0.14
14 -0.14
15 -0.14
16 0.08
17 0.08
18 -0.15
19 -0.15
2 -0.43
20 -0.15
21 -0.15
22 0.08
23 0.66
24 0.08
25 0.08
26 0.06
27 0.08
28 0.14
29 -0.14
3 -0.36
30 0.28
31 0.28
32 -0.15
33 -0.15
34 0.28
35 0.28
36 0.28
37 0.08
38 -0.15
39 0.08
4 -0.36
40 0.28
41 0.28
46 0.15
47 0.15
48 0.15
49 0.15
5 -0.36
57 0.15
6 -0.36
61 0.15
7 -0.36
71 0.15
8 -0.57
9 -0.36

> <PUBCHEM_EFFECTIVE_ROTOR_COUNT>
13.8

> <PUBCHEM_PHARMACOPHORE_FEATURES>
13
1 1 acceptor
1 10 acceptor
1 3 acceptor
1 4 acceptor
1 5 acceptor
1 6 acceptor
1 7 acceptor
1 8 acceptor
1 9 acceptor
6 1 11 12 13 14 16 rings
6 14 16 17 18 21 22 rings
6 15 19 20 24 25 27 rings
6 29 32 33 37 38 39 rings

> <PUBCHEM_HEAVY_ATOM_COUNT>
41

> <PUBCHEM_ATOM_DEF_STEREO_COUNT>
2

> <PUBCHEM_ATOM_UDEF_STEREO_COUNT>
0

> <PUBCHEM_BOND_DEF_STEREO_COUNT>
0

> <PUBCHEM_BOND_UDEF_STEREO_COUNT>
0

> <PUBCHEM_ISOTOPIC_ATOM_COUNT>
0

> <PUBCHEM_COMPONENT_COUNT>
1

> <PUBCHEM_CACTVS_TAUTO_COUNT>
8

> <PUBCHEM_CONFORMER_ID>
07484F3200000005

> <PUBCHEM_MMFF94_ENERGY>
178.6927

> <PUBCHEM_FEATURE_SELFOVERLAP>
66.026

> <PUBCHEM_SHAPE_FINGERPRINT>
10190206 1 18263073461024996238
10369192 42 18260835860494660309
10815517 723 18263928911711124579
10864689 126 18339637829009015276
11007060 377 18271230703969836941
11421498 54 17201921423483890761
11488393 25 17980206279223822218
11578080 2 17915737772824157776
11991303 11 18334579048791355974
1200032 147 15409795574642715867
12156800 1 18120685614454049983
12522641 33 18338791201725862861
12633046 712 15840716343605086898
12788726 201 18047165717301444683
13383665 225 18047480208298694004
13540713 4 18129657651687179392
13636023 51 17753886113461942693
14294032 229 18186795885973611988
14856354 85 16660655067596808993
15361156 5 18121222245264105524
15444296 8 17902817458388184438
15484559 13 18125147252187381188
15968369 153 17836358620333763836
16114785 44 18127963324820680434
18365409 1 18408882962623331301
19304152 47 18040724649768806825
21033648 29 18335691733237641024
4058900 60 18193278498813905113
4408954 64 16810983754853150723
4461854 278 18188793703307354507
469060 322 17313931039057833486
5171179 24 17912362332034998088
5265222 85 18334582347147508436
563151 40 18407478868694260954
6669772 16 18338524019456294750
9658208 31 18410847777081022712

> <PUBCHEM_SHAPE_MULTIPOLES>
785.07
15.82
6.31
2.68
14.39
5.29
-0.29
-19
-0.07
-9.06
0.04
-0.56
1.35
2.76

> <PUBCHEM_SHAPE_SELFOVERLAP>
1682.196

> <PUBCHEM_SHAPE_VOLUME>
437

> <PUBCHEM_COORDINATE_TYPE>
2
5
10

$$$$