127045214
  -OEChem-03242010103D

 70 74  0     0  0  0  0  0  0999 V2000
    0.8777    3.5476    2.4871 O   0  0  0  0  0  0  0  0  0  0  0  0
    2.4342    5.6143    1.4722 O   0  0  0  0  0  0  0  0  0  0  0  0
   -2.0690   -1.4427    4.0086 O   0  0  0  0  0  0  0  0  0  0  0  0
   -3.8372    0.4486   -3.0111 O   0  0  0  0  0  0  0  0  0  0  0  0
   -6.5213    1.1003   -2.6965 O   0  0  0  0  0  0  0  0  0  0  0  0
    2.4139   -2.8751    0.3680 N   0  0  0  0  0  0  0  0  0  0  0  0
    2.5574   -0.5416    0.1015 N   0  0  0  0  0  0  0  0  0  0  0  0
    3.1153    0.4193   -2.0367 N   0  0  0  0  0  0  0  0  0  0  0  0
    2.9801   -1.9640   -1.8065 C   0  0  0  0  0  0  0  0  0  0  0  0
    2.6575   -1.7574   -0.4682 C   0  0  0  0  0  0  0  0  0  0  0  0
    3.2071   -0.8098   -2.5739 C   0  0  0  0  0  0  0  0  0  0  0  0
    2.7956    0.4866   -0.7285 C   0  0  0  0  0  0  0  0  0  0  0  0
    2.6997    1.8060   -0.1604 C   0  0  0  0  0  0  0  0  0  0  0  0
    1.5960   -3.0547    1.4949 C   0  0  0  0  0  0  0  0  0  0  0  0
    3.0788   -3.2441   -2.3790 C   0  0  0  0  0  0  0  0  0  0  0  0
    3.5324   -0.9765   -3.9179 C   0  0  0  0  0  0  0  0  0  0  0  0
    0.4208   -2.3153    1.6285 C   0  0  0  0  0  0  0  0  0  0  0  0
   -0.3911   -2.4926    2.7488 C   0  0  0  0  0  0  0  0  0  0  0  0
    1.8254    2.0471    0.8993 C   0  0  0  0  0  0  0  0  0  0  0  0
    3.4054   -3.3814   -3.7244 C   0  0  0  0  0  0  0  0  0  0  0  0
    3.4816    2.8430   -0.6691 C   0  0  0  0  0  0  0  0  0  0  0  0
    1.9593   -3.9715    2.4813 C   0  0  0  0  0  0  0  0  0  0  0  0
    3.6324   -2.2462   -4.4945 C   0  0  0  0  0  0  0  0  0  0  0  0
    1.7332    3.3251    1.4506 C   0  0  0  0  0  0  0  0  0  0  0  0
    2.5151    4.3621    0.9419 C   0  0  0  0  0  0  0  0  0  0  0  0
   -0.0278   -3.4094    3.7353 C   0  0  0  0  0  0  0  0  0  0  0  0
    3.3892    4.1210   -0.1181 C   0  0  0  0  0  0  0  0  0  0  0  0
    1.1473   -4.1489    3.6015 C   0  0  0  0  0  0  0  0  0  0  0  0
   -1.6167   -1.7218    2.8879 C   0  0  0  0  0  0  0  0  0  0  0  0
   -4.2835   -0.1611    0.5655 C   0  0  0  0  0  0  0  0  0  0  0  0
   -2.3441   -1.2960    1.6437 C   0  0  0  0  0  0  0  0  0  0  0  0
   -3.4925   -0.6081    1.7257 C   0  0  0  0  0  0  0  0  0  0  0  0
   -3.6849   -0.0646   -0.6907 C   0  0  0  0  0  0  0  0  0  0  0  0
   -4.4330    0.3585   -1.7892 C   0  0  0  0  0  0  0  0  0  0  0  0
   -5.6303    0.1658    0.7232 C   0  0  0  0  0  0  0  0  0  0  0  0
   -5.7798    0.6855   -1.6317 C   0  0  0  0  0  0  0  0  0  0  0  0
   -6.3784    0.5892   -0.3754 C   0  0  0  0  0  0  0  0  0  0  0  0
    0.1145    2.4341    2.9478 C   0  0  0  0  0  0  0  0  0  0  0  0
    3.2673    6.6177    0.8944 C   0  0  0  0  0  0  0  0  0  0  0  0
   -2.4572    0.0961   -3.0865 C   0  0  0  0  0  0  0  0  0  0  0  0
   -7.8904    1.4148   -2.4494 C   0  0  0  0  0  0  0  0  0  0  0  0
    3.1026   -3.6132    0.2503 H   0  0  0  0  0  0  0  0  0  0  0  0
    2.8997   -4.1505   -1.8075 H   0  0  0  0  0  0  0  0  0  0  0  0
    3.7147   -0.1039   -4.5424 H   0  0  0  0  0  0  0  0  0  0  0  0
    0.1663   -1.5892    0.8624 H   0  0  0  0  0  0  0  0  0  0  0  0
    1.2239    1.2181    1.2571 H   0  0  0  0  0  0  0  0  0  0  0  0
    4.1798    2.6842   -1.4876 H   0  0  0  0  0  0  0  0  0  0  0  0
    3.4807   -4.3682   -4.1709 H   0  0  0  0  0  0  0  0  0  0  0  0
    2.8727   -4.5537    2.3902 H   0  0  0  0  0  0  0  0  0  0  0  0
    3.8874   -2.3444   -5.5457 H   0  0  0  0  0  0  0  0  0  0  0  0
   -0.6493   -3.5649    4.6133 H   0  0  0  0  0  0  0  0  0  0  0  0
    4.0279    4.8768   -0.5620 H   0  0  0  0  0  0  0  0  0  0  0  0
    1.4298   -4.8633    4.3692 H   0  0  0  0  0  0  0  0  0  0  0  0
   -1.9520   -1.6314    0.6927 H   0  0  0  0  0  0  0  0  0  0  0  0
   -3.8987   -0.3328    2.6960 H   0  0  0  0  0  0  0  0  0  0  0  0
   -2.6307   -0.2935   -0.7798 H   0  0  0  0  0  0  0  0  0  0  0  0
   -6.1126    0.0949    1.6952 H   0  0  0  0  0  0  0  0  0  0  0  0
   -7.4182    0.8260   -0.1784 H   0  0  0  0  0  0  0  0  0  0  0  0
   -0.5078    2.7911    3.7752 H   0  0  0  0  0  0  0  0  0  0  0  0
    0.7552    1.6432    3.3528 H   0  0  0  0  0  0  0  0  0  0  0  0
   -0.5690    2.0644    2.1755 H   0  0  0  0  0  0  0  0  0  0  0  0
    4.3296    6.3868    1.0290 H   0  0  0  0  0  0  0  0  0  0  0  0
    3.0735    7.5489    1.4369 H   0  0  0  0  0  0  0  0  0  0  0  0
    3.0099    6.8014   -0.1543 H   0  0  0  0  0  0  0  0  0  0  0  0
   -2.1516    0.2183   -4.1310 H   0  0  0  0  0  0  0  0  0  0  0  0
   -2.2927   -0.9565   -2.8313 H   0  0  0  0  0  0  0  0  0  0  0  0
   -1.8332    0.7744   -2.4944 H   0  0  0  0  0  0  0  0  0  0  0  0
   -8.3269    1.7258   -3.4043 H   0  0  0  0  0  0  0  0  0  0  0  0
   -7.9924    2.2621   -1.7627 H   0  0  0  0  0  0  0  0  0  0  0  0
   -8.4524    0.5363   -2.1145 H   0  0  0  0  0  0  0  0  0  0  0  0
  1 24  1  0  0  0  0
  1 38  1  0  0  0  0
  2 25  1  0  0  0  0
  2 39  1  0  0  0  0
  3 29  2  0  0  0  0
  4 34  1  0  0  0  0
  4 40  1  0  0  0  0
  5 36  1  0  0  0  0
  5 41  1  0  0  0  0
  6 10  1  0  0  0  0
  6 14  1  0  0  0  0
  6 42  1  0  0  0  0
  7 10  2  0  0  0  0
  7 12  1  0  0  0  0
  8 11  1  0  0  0  0
  8 12  2  0  0  0  0
  9 10  1  0  0  0  0
  9 11  1  0  0  0  0
  9 15  2  0  0  0  0
 11 16  2  0  0  0  0
 12 13  1  0  0  0  0
 13 19  2  0  0  0  0
 13 21  1  0  0  0  0
 14 17  1  0  0  0  0
 14 22  2  0  0  0  0
 15 20  1  0  0  0  0
 15 43  1  0  0  0  0
 16 23  1  0  0  0  0
 16 44  1  0  0  0  0
 17 18  2  0  0  0  0
 17 45  1  0  0  0  0
 18 26  1  0  0  0  0
 18 29  1  0  0  0  0
 19 24  1  0  0  0  0
 19 46  1  0  0  0  0
 20 23  2  0  0  0  0
 20 48  1  0  0  0  0
 21 27  2  0  0  0  0
 21 47  1  0  0  0  0
 22 28  1  0  0  0  0
 22 49  1  0  0  0  0
 23 50  1  0  0  0  0
 24 25  2  0  0  0  0
 25 27  1  0  0  0  0
 26 28  2  0  0  0  0
 26 51  1  0  0  0  0
 27 52  1  0  0  0  0
 28 53  1  0  0  0  0
 29 31  1  0  0  0  0
 30 32  1  0  0  0  0
 30 33  2  0  0  0  0
 30 35  1  0  0  0  0
 31 32  2  0  0  0  0
 31 54  1  0  0  0  0
 32 55  1  0  0  0  0
 33 34  1  0  0  0  0
 33 56  1  0  0  0  0
 34 36  2  0  0  0  0
 35 37  2  0  0  0  0
 35 57  1  0  0  0  0
 36 37  1  0  0  0  0
 37 58  1  0  0  0  0
 38 59  1  0  0  0  0
 38 60  1  0  0  0  0
 38 61  1  0  0  0  0
 39 62  1  0  0  0  0
 39 63  1  0  0  0  0
 39 64  1  0  0  0  0
 40 65  1  0  0  0  0
 40 66  1  0  0  0  0
 40 67  1  0  0  0  0
 41 68  1  0  0  0  0
 41 69  1  0  0  0  0
 41 70  1  0  0  0  0
M  END
> <PUBCHEM_COMPOUND_CID>
127045214

> <PUBCHEM_CONFORMER_RMSD>
1.2

> <PUBCHEM_CONFORMER_DIVERSEORDER>
8
33
107
92
66
76
45
126
43
20
30
14
85
115
103
112
109
50
96
88
1
49
2
52
106
15
111
34
75
94
78
10
86
116
25
53
3
35
37
110
19
100
108
26
73
39
23
48
18
81
12
51
72
56
119
46
11
17
59
60
6
84
7
57
87
91
120
77
22
64
89
9
102
118
42
117
63
95
69
5
31
70
125
28
124
97
62
104
4
121
41
13
16
105
61
90
68
40
99
80
67
123
21
65
114
82
29
32
54
27
55
74
24
79
58
36
47
122
93
71
101
83
38
98
127
44
113

> <PUBCHEM_MMFF94_PARTIAL_CHARGES>
56
1 -0.36
10 0.41
11 0.31
12 0.62
14 0.1
15 -0.15
16 -0.15
17 -0.15
18 0.09
19 -0.15
2 -0.36
20 -0.15
21 -0.15
22 -0.15
23 -0.15
24 0.08
25 0.08
26 -0.15
27 -0.15
28 -0.15
29 0.47
3 -0.57
30 0.03
31 -0.14
32 -0.18
33 -0.15
34 0.08
35 -0.15
36 0.08
37 -0.15
38 0.28
39 0.28
4 -0.36
40 0.28
41 0.28
42 0.4
43 0.15
44 0.15
45 0.15
46 0.15
47 0.15
48 0.15
49 0.15
5 -0.36
50 0.15
51 0.15
52 0.15
53 0.15
54 0.15
55 0.15
56 0.15
57 0.15
58 0.15
6 -0.6
7 -0.62
8 -0.62

> <PUBCHEM_EFFECTIVE_ROTOR_COUNT>
10

> <PUBCHEM_PHARMACOPHORE_FEATURES>
13
1 1 acceptor
1 2 acceptor
1 3 acceptor
1 4 acceptor
1 5 acceptor
1 6 donor
3 6 7 10 cation
3 7 8 12 cation
6 13 19 21 24 25 27 rings
6 14 17 18 22 26 28 rings
6 30 33 34 35 36 37 rings
6 7 8 9 10 11 12 rings
6 9 11 15 16 20 23 rings

> <PUBCHEM_HEAVY_ATOM_COUNT>
41

> <PUBCHEM_ATOM_DEF_STEREO_COUNT>
0

> <PUBCHEM_ATOM_UDEF_STEREO_COUNT>
0

> <PUBCHEM_BOND_DEF_STEREO_COUNT>
1

> <PUBCHEM_BOND_UDEF_STEREO_COUNT>
0

> <PUBCHEM_ISOTOPIC_ATOM_COUNT>
0

> <PUBCHEM_COMPONENT_COUNT>
1

> <PUBCHEM_CACTVS_TAUTO_COUNT>
9

> <PUBCHEM_CONFORMER_ID>
07928E5E00000008

> <PUBCHEM_MMFF94_ENERGY>
182.0618

> <PUBCHEM_FEATURE_SELFOVERLAP>
66.155

> <PUBCHEM_SHAPE_FINGERPRINT>
10079526 1005 17914872444225282344
10256941 240 17756425220174062890
10556698 54 18117822323652736429
10675989 125 18409441501582997401
10842077 115 18118701043115446001
11093857 51 17167863028458864071
13383668 262 17411582056436293207
14114206 34 17903954095780994056
14279260 333 17328635697858831902
14932702 115 17677916576815586903
15297060 5 17314253123155991351
19053607 189 16877667855477716343
19309040 13 16766533724956144273
21987440 362 17676755570041278400
23559900 14 16589420879377872183
25019877 29 14176132885144330150
25223398 141 17313959639534811458
376196 1 18124303067833296652
50150288 127 17401235290408106817
59025328 239 17630063567643599774
86090 222 18115041791388084899
9982175 5 17624095649981681168

> <PUBCHEM_SHAPE_MULTIPOLES>
799.47
12.3
7.35
5.6
29.65
9.47
1.93
5.53
13.94
-13.15
-6.93
-1.26
-5.43
6.16

> <PUBCHEM_SHAPE_SELFOVERLAP>
1760.234

> <PUBCHEM_SHAPE_VOLUME>
430.9

> <PUBCHEM_COORDINATE_TYPE>
2
5
10

$$$$