10598951
  -OEChem-03242010103D

 59 62  0     1  0  0  0  0  0999 V2000
    8.0127    1.5684    1.4277 F   0  0  0  0  0  0  0  0  0  0  0  0
   -2.4543   -2.9571   -2.4103 O   0  0  0  0  0  0  0  0  0  0  0  0
   -3.4142   -1.5906   -0.1589 O   0  0  0  0  0  0  0  0  0  0  0  0
   -5.1172    1.2284   -0.9861 O   0  0  0  0  0  0  0  0  0  0  0  0
    0.7931   -1.9808   -0.9097 N   0  0  0  0  0  0  0  0  0  0  0  0
    3.3121   -0.7948   -0.2709 N   0  0  0  0  0  0  0  0  0  0  0  0
    1.9505   -2.8247   -0.5874 C   0  0  0  0  0  0  0  0  0  0  0  0
    1.2390   -0.7650   -1.6011 C   0  0  0  0  0  0  0  0  0  0  0  0
    2.9339   -2.0840    0.3217 C   0  0  0  0  0  0  0  0  0  0  0  0
    2.1998    0.0445   -0.7265 C   0  0  0  0  0  0  0  0  0  0  0  0
   -0.1651   -2.7171   -1.7333 C   0  0  0  0  0  0  0  0  0  0  0  0
   -1.5835   -2.1564   -1.6058 C   0  0  2  0  0  0  0  0  0  0  0  0
    4.5017   -0.1970    0.1599 C   0  0  0  0  0  0  0  0  0  0  0  0
   -2.1080   -2.1583   -0.1717 C   0  0  0  0  0  0  0  0  0  0  0  0
    5.7156   -0.8653    0.0000 C   0  0  0  0  0  0  0  0  0  0  0  0
    4.4738    1.0675    0.7482 C   0  0  0  0  0  0  0  0  0  0  0  0
    6.9016   -0.2690    0.4286 C   0  0  0  0  0  0  0  0  0  0  0  0
    5.6597    1.6637    1.1768 C   0  0  0  0  0  0  0  0  0  0  0  0
    6.8736    0.9955    1.0168 C   0  0  0  0  0  0  0  0  0  0  0  0
   -3.7950   -0.9491    0.9893 C   0  0  0  0  0  0  0  0  0  0  0  0
   -4.1432    0.4016    0.9730 C   0  0  0  0  0  0  0  0  0  0  0  0
   -3.8333   -1.6647    2.1861 C   0  0  0  0  0  0  0  0  0  0  0  0
   -4.5298    1.0364    2.1534 C   0  0  0  0  0  0  0  0  0  0  0  0
   -4.1111    1.1669   -0.2656 C   0  0  0  0  0  0  0  0  0  0  0  0
   -4.2200   -1.0299    3.3664 C   0  0  0  0  0  0  0  0  0  0  0  0
   -4.5682    0.3206    3.3501 C   0  0  0  0  0  0  0  0  0  0  0  0
   -2.8927    1.9003   -0.7202 C   0  0  0  0  0  0  0  0  0  0  0  0
   -1.7302    1.8663    0.0501 C   0  0  0  0  0  0  0  0  0  0  0  0
   -2.9164    2.6189   -1.9156 C   0  0  0  0  0  0  0  0  0  0  0  0
   -0.5917    2.5512   -0.3747 C   0  0  0  0  0  0  0  0  0  0  0  0
   -1.7778    3.3036   -2.3405 C   0  0  0  0  0  0  0  0  0  0  0  0
   -0.6155    3.2697   -1.5699 C   0  0  0  0  0  0  0  0  0  0  0  0
    2.4639   -3.1446   -1.5043 H   0  0  0  0  0  0  0  0  0  0  0  0
    1.6232   -3.7301   -0.0617 H   0  0  0  0  0  0  0  0  0  0  0  0
    0.3859   -0.1232   -1.8458 H   0  0  0  0  0  0  0  0  0  0  0  0
    1.7365   -1.0174   -2.5475 H   0  0  0  0  0  0  0  0  0  0  0  0
    2.4794   -1.9084    1.3053 H   0  0  0  0  0  0  0  0  0  0  0  0
    3.8046   -2.7308    0.4796 H   0  0  0  0  0  0  0  0  0  0  0  0
    2.5670    0.8925   -1.3178 H   0  0  0  0  0  0  0  0  0  0  0  0
    1.6592    0.4403    0.1420 H   0  0  0  0  0  0  0  0  0  0  0  0
    0.1394   -2.7594   -2.7879 H   0  0  0  0  0  0  0  0  0  0  0  0
   -0.2083   -3.7680   -1.4129 H   0  0  0  0  0  0  0  0  0  0  0  0
   -1.6432   -1.1432   -2.0172 H   0  0  0  0  0  0  0  0  0  0  0  0
   -2.1806   -3.1852    0.2053 H   0  0  0  0  0  0  0  0  0  0  0  0
   -1.4378   -1.5852    0.4805 H   0  0  0  0  0  0  0  0  0  0  0  0
    5.7603   -1.8447   -0.4691 H   0  0  0  0  0  0  0  0  0  0  0  0
    3.5457    1.6109    0.9012 H   0  0  0  0  0  0  0  0  0  0  0  0
   -2.4449   -3.8616   -2.0533 H   0  0  0  0  0  0  0  0  0  0  0  0
    7.8474   -0.7874    0.3014 H   0  0  0  0  0  0  0  0  0  0  0  0
    5.6385    2.6470    1.6376 H   0  0  0  0  0  0  0  0  0  0  0  0
   -3.5736   -2.7194    2.2136 H   0  0  0  0  0  0  0  0  0  0  0  0
   -4.8039    2.0884    2.1536 H   0  0  0  0  0  0  0  0  0  0  0  0
   -4.2519   -1.5876    4.2978 H   0  0  0  0  0  0  0  0  0  0  0  0
   -4.8697    0.8147    4.2690 H   0  0  0  0  0  0  0  0  0  0  0  0
   -1.6710    1.3181    0.9854 H   0  0  0  0  0  0  0  0  0  0  0  0
   -3.8084    2.6614   -2.5348 H   0  0  0  0  0  0  0  0  0  0  0  0
    0.3117    2.5307    0.2273 H   0  0  0  0  0  0  0  0  0  0  0  0
   -1.7957    3.8631   -3.2711 H   0  0  0  0  0  0  0  0  0  0  0  0
    0.2709    3.8033   -1.9001 H   0  0  0  0  0  0  0  0  0  0  0  0
  1 19  1  0  0  0  0
  2 12  1  0  0  0  0
  2 48  1  0  0  0  0
  3 14  1  0  0  0  0
  3 20  1  0  0  0  0
  4 24  2  0  0  0  0
  5  7  1  0  0  0  0
  5  8  1  0  0  0  0
  5 11  1  0  0  0  0
  6  9  1  0  0  0  0
  6 10  1  0  0  0  0
  6 13  1  0  0  0  0
  7  9  1  0  0  0  0
  7 33  1  0  0  0  0
  7 34  1  0  0  0  0
  8 10  1  0  0  0  0
  8 35  1  0  0  0  0
  8 36  1  0  0  0  0
  9 37  1  0  0  0  0
  9 38  1  0  0  0  0
 10 39  1  0  0  0  0
 10 40  1  0  0  0  0
 11 12  1  0  0  0  0
 11 41  1  0  0  0  0
 11 42  1  0  0  0  0
 12 14  1  0  0  0  0
 12 43  1  0  0  0  0
 13 15  2  0  0  0  0
 13 16  1  0  0  0  0
 14 44  1  0  0  0  0
 14 45  1  0  0  0  0
 15 17  1  0  0  0  0
 15 46  1  0  0  0  0
 16 18  2  0  0  0  0
 16 47  1  0  0  0  0
 17 19  2  0  0  0  0
 17 49  1  0  0  0  0
 18 19  1  0  0  0  0
 18 50  1  0  0  0  0
 20 21  1  0  0  0  0
 20 22  2  0  0  0  0
 21 23  2  0  0  0  0
 21 24  1  0  0  0  0
 22 25  1  0  0  0  0
 22 51  1  0  0  0  0
 23 26  1  0  0  0  0
 23 52  1  0  0  0  0
 24 27  1  0  0  0  0
 25 26  2  0  0  0  0
 25 53  1  0  0  0  0
 26 54  1  0  0  0  0
 27 28  2  0  0  0  0
 27 29  1  0  0  0  0
 28 30  1  0  0  0  0
 28 55  1  0  0  0  0
 29 31  2  0  0  0  0
 29 56  1  0  0  0  0
 30 32  2  0  0  0  0
 30 57  1  0  0  0  0
 31 32  1  0  0  0  0
 31 58  1  0  0  0  0
 32 59  1  0  0  0  0
M  END
> <PUBCHEM_COMPOUND_CID>
10598951

> <PUBCHEM_CONFORMER_RMSD>
1

> <PUBCHEM_CONFORMER_DIVERSEORDER>
1
51
163
198
94
29
159
25
115
210
98
184
214
148
80
70
182
173
113
155
140
116
127
37
119
82
143
48
167
89
76
131
38
56
205
23
170
109
84
35
132
162
144
128
125
175
188
226
220
101
124
104
135
74
112
190
138
68
168
72
81
75
177
228
32
204
129
186
225
194
107
202
158
108
30
192
191
133
102
150
54
171
161
142
185
146
136
178
114
193
152
65
203
223
77
49
169
58
196
57
111
183
187
40
200
10
55
120
154
208
33
62
20
197
221
99
160
100
181
145
18
130
71
92
164
59
103
95
97
123
78
31
53
153
227
118
157
79
141
156
117
206
34
4
209
47
21
165
93
180
207
121
86
11
13
50
69
126
27
110
179
122
215
134
41
218
12
189
44
199
201
219
28
147
87
64
224
39
7
24
73
211
63
195
151
166
83
172
222
2
139
46
176
67
3
36
174
61
85
22
217
15
96
90
9
66
19
216
213
106
149
52
91
60
6
105
42
88
8
212
45
26
137
43
5
17
14
16

> <PUBCHEM_MMFF94_PARTIAL_CHARGES>
46
1 -0.19
10 0.37
11 0.27
12 0.28
13 0.1
14 0.28
15 -0.15
16 -0.15
17 -0.15
18 -0.15
19 0.19
2 -0.68
20 0.08
21 0.09
22 -0.15
23 -0.15
24 0.4
25 -0.15
26 -0.15
27 0.09
28 -0.15
29 -0.15
3 -0.36
30 -0.15
31 -0.15
32 -0.15
4 -0.57
46 0.15
47 0.15
48 0.4
49 0.15
5 -0.81
50 0.15
51 0.15
52 0.15
53 0.15
54 0.15
55 0.15
56 0.15
57 0.15
58 0.15
59 0.15
6 -0.84
7 0.27
8 0.27
9 0.37

> <PUBCHEM_EFFECTIVE_ROTOR_COUNT>
9.2

> <PUBCHEM_PHARMACOPHORE_FEATURES>
10
1 2 acceptor
1 2 donor
1 3 acceptor
1 4 acceptor
1 5 cation
1 6 cation
6 13 15 16 17 18 19 rings
6 20 21 22 23 25 26 rings
6 27 28 29 30 31 32 rings
6 5 6 7 8 9 10 rings

> <PUBCHEM_HEAVY_ATOM_COUNT>
32

> <PUBCHEM_ATOM_DEF_STEREO_COUNT>
0

> <PUBCHEM_ATOM_UDEF_STEREO_COUNT>
1

> <PUBCHEM_BOND_DEF_STEREO_COUNT>
0

> <PUBCHEM_BOND_UDEF_STEREO_COUNT>
0

> <PUBCHEM_ISOTOPIC_ATOM_COUNT>
0

> <PUBCHEM_COMPONENT_COUNT>
1

> <PUBCHEM_CACTVS_TAUTO_COUNT>
1

> <PUBCHEM_CONFORMER_ID>
00A1BA2700000001

> <PUBCHEM_MMFF94_ENERGY>
109.7408

> <PUBCHEM_FEATURE_SELFOVERLAP>
50.753

> <PUBCHEM_SHAPE_FINGERPRINT>
10675989 125 16819941016233470797
10930396 42 17749105591607708241
11112241 14 17986683567486233009
11828532 37 16807598294632607803
12035758 1 17897189961305432305
12128747 34 17825111402825575354
12422481 6 18338529598280695104
12988421 55 18131351890840219598
14068700 675 17343769655070360815
14395042 24 18126577954015148571
14765038 42 17918002663181235176
14840074 17 18338529623955468956
14950920 106 16878231968786901902
15163728 17 13541363558140192539
15264996 74 18058145376023048743
15324884 4 17979953456912894943
15513586 35 17907020921426451088
16067689 68 14188443713392525246
16110190 28 18337963375557004008
17780758 139 16950284013800904155
17913733 40 18273213067615797242
18393751 57 18270975565891185131
19304152 47 18114175329218341964
19309040 13 15984559818304916311
21304303 282 16806990062638745069
21458453 9 18261669389478085280
21795232 40 18272927245821310921
21796203 349 17972911255976338112
25019877 29 17131281297492788335
2838139 119 16343984715428510882
3380486 145 18411419522905803093
3383291 50 17822018597471013233
3552219 110 17702096083758168799
376196 1 17469302757017952821
392239 28 18201439198859142744
469060 322 18336542823893069911
50009960 94 17535772994252921235
9982175 41 17386279883581561900

> <PUBCHEM_SHAPE_MULTIPOLES>
623.7
15.57
3.87
2.74
29.41
1.22
1.29
3.44
11.91
-2.38
-2.68
-4.09
-0.62
2.93

> <PUBCHEM_SHAPE_SELFOVERLAP>
1340.647

> <PUBCHEM_SHAPE_VOLUME>
344.7

> <PUBCHEM_COORDINATE_TYPE>
2
5
10

$$$$