14057200
  -OEChem-03242010103D

 51 53  0     1  0  0  0  0  0999 V2000
    0.7728    0.5934   -0.3972 O   0  0  0  0  0  0  0  0  0  0  0  0
   -0.2749   -2.7510    0.7880 O   0  0  0  0  0  0  0  0  0  0  0  0
    4.7992   -1.8019    0.8306 O   0  0  0  0  0  0  0  0  0  0  0  0
    5.0066    2.6777   -0.7598 O   0  0  0  0  0  0  0  0  0  0  0  0
   -4.5176   -0.5860   -2.1786 O   0  0  0  0  0  0  0  0  0  0  0  0
   -3.6892    1.4052    2.0979 O   0  0  0  0  0  0  0  0  0  0  0  0
   -5.4494    0.7494    0.0619 O   0  0  0  0  0  0  0  0  0  0  0  0
    0.4801   -1.5439    0.7990 C   0  0  2  0  0  0  0  0  0  0  0  0
    0.0302   -0.6357   -0.3541 C   0  0  1  0  0  0  0  0  0  0  0  0
    1.9569   -1.8877    0.6239 C   0  0  0  0  0  0  0  0  0  0  0  0
    2.7538   -0.6732    0.2556 C   0  0  0  0  0  0  0  0  0  0  0  0
   -1.4370   -0.2647   -0.2428 C   0  0  0  0  0  0  0  0  0  0  0  0
    2.1277    0.4766   -0.2380 C   0  0  0  0  0  0  0  0  0  0  0  0
    4.1497   -0.6910    0.3780 C   0  0  0  0  0  0  0  0  0  0  0  0
    2.8843    1.6047   -0.5671 C   0  0  0  0  0  0  0  0  0  0  0  0
   -1.8992    0.4069    0.8868 C   0  0  0  0  0  0  0  0  0  0  0  0
   -2.3168   -0.5972   -1.2704 C   0  0  0  0  0  0  0  0  0  0  0  0
    4.9044    0.4318    0.0377 C   0  0  0  0  0  0  0  0  0  0  0  0
    4.2714    1.5806   -0.4310 C   0  0  0  0  0  0  0  0  0  0  0  0
   -3.6656   -0.2563   -1.1681 C   0  0  0  0  0  0  0  0  0  0  0  0
   -3.2478    0.7478    0.9893 C   0  0  0  0  0  0  0  0  0  0  0  0
   -4.1311    0.4162   -0.0381 C   0  0  0  0  0  0  0  0  0  0  0  0
    5.2061   -2.7559   -0.1472 C   0  0  0  0  0  0  0  0  0  0  0  0
    6.4210    2.5844   -0.5962 C   0  0  0  0  0  0  0  0  0  0  0  0
   -5.1613   -1.8560   -2.0951 C   0  0  0  0  0  0  0  0  0  0  0  0
   -4.1382    0.6052    3.1899 C   0  0  0  0  0  0  0  0  0  0  0  0
   -5.8364    2.0206   -0.4550 C   0  0  0  0  0  0  0  0  0  0  0  0
    0.3397   -1.0507    1.7687 H   0  0  0  0  0  0  0  0  0  0  0  0
    0.1856   -1.1550   -1.3106 H   0  0  0  0  0  0  0  0  0  0  0  0
    2.0703   -2.6461   -0.1610 H   0  0  0  0  0  0  0  0  0  0  0  0
    2.3266   -2.3359    1.5543 H   0  0  0  0  0  0  0  0  0  0  0  0
    2.3928    2.5019   -0.9358 H   0  0  0  0  0  0  0  0  0  0  0  0
   -1.2187    0.6813    1.6888 H   0  0  0  0  0  0  0  0  0  0  0  0
   -1.9620   -1.1207   -2.1546 H   0  0  0  0  0  0  0  0  0  0  0  0
    0.0487   -3.3050    1.5188 H   0  0  0  0  0  0  0  0  0  0  0  0
    5.9795    0.3505    0.1611 H   0  0  0  0  0  0  0  0  0  0  0  0
    5.9781   -2.3283   -0.7947 H   0  0  0  0  0  0  0  0  0  0  0  0
    4.3578   -3.0916   -0.7511 H   0  0  0  0  0  0  0  0  0  0  0  0
    5.6275   -3.6205    0.3730 H   0  0  0  0  0  0  0  0  0  0  0  0
    6.8527    1.8216   -1.2531 H   0  0  0  0  0  0  0  0  0  0  0  0
    6.6959    2.4331    0.4532 H   0  0  0  0  0  0  0  0  0  0  0  0
    6.8456    3.5463   -0.9020 H   0  0  0  0  0  0  0  0  0  0  0  0
   -5.8119   -1.9682   -2.9667 H   0  0  0  0  0  0  0  0  0  0  0  0
   -5.7742   -1.9189   -1.1905 H   0  0  0  0  0  0  0  0  0  0  0  0
   -4.4210   -2.6622   -2.1045 H   0  0  0  0  0  0  0  0  0  0  0  0
   -4.4635    1.2726    3.9925 H   0  0  0  0  0  0  0  0  0  0  0  0
   -3.3239   -0.0229    3.5650 H   0  0  0  0  0  0  0  0  0  0  0  0
   -4.9856   -0.0184    2.8882 H   0  0  0  0  0  0  0  0  0  0  0  0
   -5.3173    2.8261    0.0739 H   0  0  0  0  0  0  0  0  0  0  0  0
   -6.9125    2.1391   -0.3018 H   0  0  0  0  0  0  0  0  0  0  0  0
   -5.6274    2.0803   -1.5278 H   0  0  0  0  0  0  0  0  0  0  0  0
  1  9  1  0  0  0  0
  1 13  1  0  0  0  0
  2  8  1  0  0  0  0
  2 35  1  0  0  0  0
  3 14  1  0  0  0  0
  3 23  1  0  0  0  0
  4 19  1  0  0  0  0
  4 24  1  0  0  0  0
  5 20  1  0  0  0  0
  5 25  1  0  0  0  0
  6 21  1  0  0  0  0
  6 26  1  0  0  0  0
  7 22  1  0  0  0  0
  7 27  1  0  0  0  0
  8  9  1  0  0  0  0
  8 10  1  0  0  0  0
  8 28  1  0  0  0  0
  9 12  1  0  0  0  0
  9 29  1  0  0  0  0
 10 11  1  0  0  0  0
 10 30  1  0  0  0  0
 10 31  1  0  0  0  0
 11 13  2  0  0  0  0
 11 14  1  0  0  0  0
 12 16  2  0  0  0  0
 12 17  1  0  0  0  0
 13 15  1  0  0  0  0
 14 18  2  0  0  0  0
 15 19  2  0  0  0  0
 15 32  1  0  0  0  0
 16 21  1  0  0  0  0
 16 33  1  0  0  0  0
 17 20  2  0  0  0  0
 17 34  1  0  0  0  0
 18 19  1  0  0  0  0
 18 36  1  0  0  0  0
 20 22  1  0  0  0  0
 21 22  2  0  0  0  0
 23 37  1  0  0  0  0
 23 38  1  0  0  0  0
 23 39  1  0  0  0  0
 24 40  1  0  0  0  0
 24 41  1  0  0  0  0
 24 42  1  0  0  0  0
 25 43  1  0  0  0  0
 25 44  1  0  0  0  0
 25 45  1  0  0  0  0
 26 46  1  0  0  0  0
 26 47  1  0  0  0  0
 26 48  1  0  0  0  0
 27 49  1  0  0  0  0
 27 50  1  0  0  0  0
 27 51  1  0  0  0  0
M  END
> <PUBCHEM_COMPOUND_CID>
14057200

> <PUBCHEM_CONFORMER_RMSD>
0.8

> <PUBCHEM_CONFORMER_DIVERSEORDER>
1
5
20
17
14
11
16
9
18
13
15
21
12
7
10
3
8
2
6
19
4

> <PUBCHEM_MMFF94_PARTIAL_CHARGES>
32
1 -0.36
10 0.14
11 -0.14
12 -0.14
13 0.08
14 0.08
15 -0.15
16 -0.15
17 -0.15
18 -0.15
19 0.08
2 -0.68
20 0.08
21 0.08
22 0.08
23 0.28
24 0.28
25 0.28
26 0.28
27 0.28
3 -0.36
32 0.15
33 0.15
34 0.15
35 0.4
36 0.15
4 -0.36
5 -0.36
6 -0.36
7 -0.36
8 0.28
9 0.42

> <PUBCHEM_EFFECTIVE_ROTOR_COUNT>
6.8

> <PUBCHEM_PHARMACOPHORE_FEATURES>
11
1 1 acceptor
1 2 acceptor
1 2 donor
1 3 acceptor
1 4 acceptor
1 5 acceptor
1 6 acceptor
1 7 acceptor
6 1 8 9 10 11 13 rings
6 11 13 14 15 18 19 rings
6 12 16 17 20 21 22 rings

> <PUBCHEM_HEAVY_ATOM_COUNT>
27

> <PUBCHEM_ATOM_DEF_STEREO_COUNT>
2

> <PUBCHEM_ATOM_UDEF_STEREO_COUNT>
0

> <PUBCHEM_BOND_DEF_STEREO_COUNT>
0

> <PUBCHEM_BOND_UDEF_STEREO_COUNT>
0

> <PUBCHEM_ISOTOPIC_ATOM_COUNT>
0

> <PUBCHEM_COMPONENT_COUNT>
1

> <PUBCHEM_CACTVS_TAUTO_COUNT>
1

> <PUBCHEM_CONFORMER_ID>
00D67EF000000001

> <PUBCHEM_MMFF94_ENERGY>
130.8761

> <PUBCHEM_FEATURE_SELFOVERLAP>
55.865

> <PUBCHEM_SHAPE_FINGERPRINT>
10 15 17023468672193956444
10411042 1 17685487651356904946
10595046 47 18342170106981175511
10912923 1 18202847655936791280
11045977 3 17603879870273897906
12236239 1 18272365348213406855
12403259 415 17313378994073537559
12616971 3 18412543180675849007
12788726 201 17774720995240608575
13140716 1 18186522129343217594
13540713 4 18043268988538122826
13583140 156 16153698877348055009
13631057 29 18122056770274333183
14739800 52 17631998863165145488
15064981 113 17131271229625118428
15081414 286 18040716983136782588
15183329 4 17846510209952192252
1577012 14 18342735230140751124
20511986 3 18201141231223742212
20612939 158 18409166593631380246
21033648 144 18186798106028306406
21033648 29 16805037406732372511
21033650 10 16056616334427372762
21065201 7 16128381458398438860
21756936 100 18129118847021524816
22122407 14 18264215716589652425
2297311 6 16486695874447400365
23557571 272 15482682264166029937
23559900 14 18409726271258059186
249057 25 18060416876619546600
335352 9 18260826030390094686
474 4 18410858741536131546
497634 4 18340197583759249287
5104073 3 17894909663581417330
57724786 102 17676497154601756684
633830 44 18341345400357019646
6608658 132 17988936556241358233
90127 26 17822287951132220172
9981440 41 17479151507875031568

> <PUBCHEM_SHAPE_MULTIPOLES>
514.56
15.09
2.65
1.79
2.53
0.3
-0.84
-5.61
2.73
3.53
0.24
-3.75
0
-2.99

> <PUBCHEM_SHAPE_SELFOVERLAP>
1102.027

> <PUBCHEM_SHAPE_VOLUME>
286.5

> <PUBCHEM_COORDINATE_TYPE>
2
5
10

$$$$