21
 OpenBabel03292022253D

108111  0  0  1  0  0  0  0  0999 V2000
   10.4226   12.5348   -6.1780 C   0  0  0  0  0  0  0  0  0  0  0  0
    9.5719   12.2439   -5.0658 O   0  0  0  0  0  0  0  0  0  0  0  0
    9.5694   10.9355   -4.6620 C   0  0  0  0  0  0  0  0  0  0  0  0
   10.7383   10.1644   -4.7178 C   0  0  0  0  0  0  0  0  0  0  0  0
   10.7268    8.8013   -4.4030 C   0  0  0  0  0  0  0  0  0  0  0  0
    9.5563    8.1746   -3.9627 C   0  0  0  0  0  0  0  0  0  0  0  0
    9.4984    6.6613   -3.6266 C   0  0  3  0  0  0  0  0  0  0  0  0
   10.7772    5.9545   -3.9409 C   0  0  0  0  0  0  0  0  0  0  0  0
   11.7729    5.4123   -4.1777 N   0  0  0  0  0  0  0  0  0  0  0  0
    9.2404    6.5013   -2.0919 C   0  0  0  0  0  0  0  0  0  0  0  0
   10.2845    7.1806   -1.1853 C   0  0  0  0  0  0  0  0  0  0  0  0
    9.9497    6.9659    0.2710 C   0  0  0  0  0  0  0  0  0  0  0  0
    9.7577    5.8647    0.7741 O   0  0  0  0  0  0  0  0  0  0  0  0
    9.8820    8.1566    0.9244 O   0  0  0  0  0  0  0  0  0  0  0  0
    9.4738    8.1021    2.3024 C   0  0  1  0  0  0  0  0  0  0  0  0
   10.6867    7.9207    3.2135 C   0  0  0  0  0  0  0  0  0  0  0  0
   10.2847    7.9043    4.6896 C   0  0  0  0  0  0  0  0  0  0  0  0
    9.3752    9.0830    5.1091 C   0  0  2  0  0  0  0  0  0  0  0  0
    8.7919    8.9555    6.4752 N   0  0  0  0  0  0  0  0  0  0  0  0
    7.9898    7.7299    6.6267 C   0  0  0  0  0  0  0  0  0  0  0  0
    9.7621    9.1147    7.6025 C   0  0  1  0  0  0  0  0  0  0  0  0
   10.5463   10.4456    7.5129 C   0  0  0  0  0  0  0  0  0  0  0  0
   11.4417   10.7137    8.7239 C   0  0  0  0  0  0  0  0  0  0  0  0
   10.6693   10.6764   10.0394 C   0  0  1  0  0  0  0  0  0  0  0  0
    9.6718   11.7147   10.0781 O   0  0  0  0  0  0  0  0  0  0  0  0
   10.1260   12.9621   10.3551 C   0  0  0  0  0  0  0  0  0  0  0  0
   11.2855   13.2899   10.5603 O   0  0  0  0  0  0  0  0  0  0  0  0
    8.9649   13.8708   10.4182 C   0  0  0  0  0  0  0  0  0  0  0  0
    9.1398   15.1655   10.7362 C   0  0  0  0  0  0  0  0  0  0  0  0
    8.0274   16.1046   10.9458 C   0  0  0  0  0  0  0  0  0  0  0  0
    6.8569   15.6834   11.5775 C   0  0  0  0  0  0  0  0  0  0  0  0
    5.8146   16.5758   11.8419 C   0  0  0  0  0  0  0  0  0  0  0  0
    4.6492   16.1887   12.4649 O   0  0  0  0  0  0  0  0  0  0  0  0
    4.7191   14.9920   13.2363 C   0  0  0  0  0  0  0  0  0  0  0  0
    5.9318   17.9281   11.4547 C   0  0  0  0  0  0  0  0  0  0  0  0
    4.8141   18.6986   11.6899 O   0  0  0  0  0  0  0  0  0  0  0  0
    5.0197   20.0597   12.0459 C   0  0  0  0  0  0  0  0  0  0  0  0
    7.1130   18.3678   10.8183 C   0  0  0  0  0  0  0  0  0  0  0  0
    7.1751   19.6791   10.4200 O   0  0  0  0  0  0  0  0  0  0  0  0
    8.3489   20.1326    9.7598 C   0  0  0  0  0  0  0  0  0  0  0  0
    8.1558   17.4517   10.5927 C   0  0  0  0  0  0  0  0  0  0  0  0
    9.9699    9.3266   10.1685 C   0  0  0  0  0  0  0  0  0  0  0  0
    9.0500    9.0317    8.9816 C   0  0  0  0  0  0  0  0  0  0  0  0
    8.2666    9.3994    4.0731 C   0  0  0  0  0  0  0  0  0  0  0  0
    8.7898    9.4244    2.6408 C   0  0  0  0  0  0  0  0  0  0  0  0
    8.3417    5.9613   -4.4673 C   0  0  0  0  0  0  0  0  0  0  0  0
    8.5181    6.0990   -5.9913 C   0  0  0  0  0  0  0  0  0  0  0  0
    8.1492    4.4674   -4.1496 C   0  0  0  0  0  0  0  0  0  0  0  0
    8.4151    8.9881   -3.8086 C   0  0  0  0  0  0  0  0  0  0  0  0
    8.4009   10.3508   -4.1612 C   0  0  0  0  0  0  0  0  0  0  0  0
    7.1678   10.9127   -3.9623 O   0  0  0  0  0  0  0  0  0  0  0  0
    6.9306   12.2469   -4.3822 C   0  0  0  0  0  0  0  0  0  0  0  0
    9.9084   13.2555   -6.8200 H   0  0  0  0  0  0  0  0  0  0  0  0
   10.6493   11.6602   -6.8000 H   0  0  0  0  0  0  0  0  0  0  0  0
   11.3500   12.9907   -5.8176 H   0  0  0  0  0  0  0  0  0  0  0  0
   11.6846   10.6069   -5.0185 H   0  0  0  0  0  0  0  0  0  0  0  0
   11.6640    8.2602   -4.5227 H   0  0  0  0  0  0  0  0  0  0  0  0
    9.2208    5.4370   -1.8270 H   0  0  0  0  0  0  0  0  0  0  0  0
    8.2449    6.8901   -1.8350 H   0  0  0  0  0  0  0  0  0  0  0  0
   10.3231    8.2571   -1.3815 H   0  0  0  0  0  0  0  0  0  0  0  0
   11.2886    6.7792   -1.3537 H   0  0  0  0  0  0  0  0  0  0  0  0
    8.7542    7.2862    2.4510 H   0  0  0  0  0  0  0  0  0  0  0  0
   11.4147    8.7208    3.0276 H   0  0  0  0  0  0  0  0  0  0  0  0
   11.2069    6.9876    2.9655 H   0  0  0  0  0  0  0  0  0  0  0  0
   11.1974    7.9128    5.2986 H   0  0  0  0  0  0  0  0  0  0  0  0
    9.7905    6.9462    4.8795 H   0  0  0  0  0  0  0  0  0  0  0  0
    9.9987    9.9830    5.0756 H   0  0  0  0  0  0  0  0  0  0  0  0
    7.3154    7.5563    5.7849 H   0  0  0  0  0  0  0  0  0  0  0  0
    7.3236    7.7975    7.4921 H   0  0  0  0  0  0  0  0  0  0  0  0
    8.6151    6.8381    6.7433 H   0  0  0  0  0  0  0  0  0  0  0  0
   10.4896    8.2927    7.5623 H   0  0  0  0  0  0  0  0  0  0  0  0
    9.8456   11.2808    7.3876 H   0  0  0  0  0  0  0  0  0  0  0  0
   11.2060   10.4429    6.6394 H   0  0  0  0  0  0  0  0  0  0  0  0
   11.9184   11.6903    8.5879 H   0  0  0  0  0  0  0  0  0  0  0  0
   12.2454    9.9666    8.7540 H   0  0  0  0  0  0  0  0  0  0  0  0
   11.3507   10.7969   10.8913 H   0  0  0  0  0  0  0  0  0  0  0  0
    7.9946   13.4333   10.2353 H   0  0  0  0  0  0  0  0  0  0  0  0
   10.1407   15.5659   10.8945 H   0  0  0  0  0  0  0  0  0  0  0  0
    6.7728   14.6426   11.8673 H   0  0  0  0  0  0  0  0  0  0  0  0
    3.7765   14.8769   13.7780 H   0  0  0  0  0  0  0  0  0  0  0  0
    5.5274   15.0460   13.9751 H   0  0  0  0  0  0  0  0  0  0  0  0
    4.8336   14.1109   12.5952 H   0  0  0  0  0  0  0  0  0  0  0  0
    4.0833   20.4339   12.4732 H   0  0  0  0  0  0  0  0  0  0  0  0
    5.2211   20.6768   11.1662 H   0  0  0  0  0  0  0  0  0  0  0  0
    5.7995   20.1718   12.8064 H   0  0  0  0  0  0  0  0  0  0  0  0
    8.1940   21.1803    9.4843 H   0  0  0  0  0  0  0  0  0  0  0  0
    8.5289   19.5727    8.8364 H   0  0  0  0  0  0  0  0  0  0  0  0
    9.2149   20.0890   10.4284 H   0  0  0  0  0  0  0  0  0  0  0  0
    9.0807   17.7654   10.1173 H   0  0  0  0  0  0  0  0  0  0  0  0
    9.3716    9.3029   11.0881 H   0  0  0  0  0  0  0  0  0  0  0  0
   10.7200    8.5303   10.2488 H   0  0  0  0  0  0  0  0  0  0  0  0
    8.1996    9.7257    9.0034 H   0  0  0  0  0  0  0  0  0  0  0  0
    8.6452    8.0259    9.1438 H   0  0  0  0  0  0  0  0  0  0  0  0
    7.8171   10.3732    4.3070 H   0  0  0  0  0  0  0  0  0  0  0  0
    7.4540    8.6683    4.1082 H   0  0  0  0  0  0  0  0  0  0  0  0
    9.4894   10.2591    2.5027 H   0  0  0  0  0  0  0  0  0  0  0  0
    7.9646    9.6088    1.9425 H   0  0  0  0  0  0  0  0  0  0  0  0
    7.3891    6.4485   -4.2158 H   0  0  0  0  0  0  0  0  0  0  0  0
    9.3910    5.5439   -6.3516 H   0  0  0  0  0  0  0  0  0  0  0  0
    8.6229    7.1422   -6.3051 H   0  0  0  0  0  0  0  0  0  0  0  0
    7.6412    5.6975   -6.5122 H   0  0  0  0  0  0  0  0  0  0  0  0
    9.0482    3.8834   -4.3737 H   0  0  0  0  0  0  0  0  0  0  0  0
    7.3339    4.0503   -4.7539 H   0  0  0  0  0  0  0  0  0  0  0  0
    7.8800    4.3038   -3.1037 H   0  0  0  0  0  0  0  0  0  0  0  0
    7.4879    8.5655   -3.4233 H   0  0  0  0  0  0  0  0  0  0  0  0
    5.8553   12.4310   -4.2804 H   0  0  0  0  0  0  0  0  0  0  0  0
    7.1757   12.3940   -5.4378 H   0  0  0  0  0  0  0  0  0  0  0  0
    7.4479   12.9611   -3.7346 H   0  0  0  0  0  0  0  0  0  0  0  0
  1  2  1  0  0  0  0
  1 53  1  0  0  0  0
  1 54  1  0  0  0  0
  1 55  1  0  0  0  0
  2  3  1  0  0  0  0
  3  4  1  0  0  0  0
  3 50  2  0  0  0  0
  4  5  2  0  0  0  0
  4 56  1  0  0  0  0
  5  6  1  0  0  0  0
  5 57  1  0  0  0  0
  6  7  1  0  0  0  0
  6 49  2  0  0  0  0
  7  8  1  0  0  0  0
  7 10  1  0  0  0  0
  7 46  1  0  0  0  0
  8  9  3  0  0  0  0
 10 11  1  0  0  0  0
 10 58  1  0  0  0  0
 10 59  1  0  0  0  0
 11 12  1  0  0  0  0
 11 60  1  0  0  0  0
 11 61  1  0  0  0  0
 12 13  2  0  0  0  0
 12 14  1  0  0  0  0
 15 16  1  0  0  0  0
 15 45  1  0  0  0  0
 15 14  1  0  0  0  0
 15 62  1  1  0  0  0
 16 17  1  0  0  0  0
 16 63  1  0  0  0  0
 16 64  1  0  0  0  0
 17 18  1  0  0  0  0
 17 65  1  0  0  0  0
 17 66  1  0  0  0  0
 18 44  1  0  0  0  0
 18 19  1  0  0  0  0
 18 67  1  1  0  0  0
 19 20  1  0  0  0  0
 20 68  1  0  0  0  0
 20 69  1  0  0  0  0
 20 70  1  0  0  0  0
 21 22  1  0  0  0  0
 21 43  1  0  0  0  0
 21 19  1  0  0  0  0
 21 71  1  6  0  0  0
 22 23  1  0  0  0  0
 22 72  1  0  0  0  0
 22 73  1  0  0  0  0
 23 24  1  0  0  0  0
 23 74  1  0  0  0  0
 23 75  1  0  0  0  0
 24 25  1  0  0  0  0
 24 42  1  0  0  0  0
 24 76  1  1  0  0  0
 25 26  1  0  0  0  0
 26 27  2  0  0  0  0
 26 28  1  0  0  0  0
 28 29  2  0  0  0  0
 28 77  1  0  0  0  0
 29 30  1  0  0  0  0
 29 78  1  0  0  0  0
 30 31  1  0  0  0  0
 30 41  2  0  0  0  0
 31 32  2  0  0  0  0
 31 79  1  0  0  0  0
 32 33  1  0  0  0  0
 32 35  1  0  0  0  0
 33 34  1  0  0  0  0
 34 80  1  0  0  0  0
 34 81  1  0  0  0  0
 34 82  1  0  0  0  0
 35 36  1  0  0  0  0
 35 38  2  0  0  0  0
 36 37  1  0  0  0  0
 37 83  1  0  0  0  0
 37 84  1  0  0  0  0
 37 85  1  0  0  0  0
 38 39  1  0  0  0  0
 38 41  1  0  0  0  0
 39 40  1  0  0  0  0
 40 86  1  0  0  0  0
 40 87  1  0  0  0  0
 40 88  1  0  0  0  0
 41 89  1  0  0  0  0
 42 43  1  0  0  0  0
 42 90  1  0  0  0  0
 42 91  1  0  0  0  0
 43 92  1  0  0  0  0
 43 93  1  0  0  0  0
 44 45  1  0  0  0  0
 44 94  1  0  0  0  0
 44 95  1  0  0  0  0
 45 96  1  0  0  0  0
 45 97  1  0  0  0  0
 46 47  1  0  0  0  0
 46 48  1  0  0  0  0
 46 98  1  0  0  0  0
 47 99  1  0  0  0  0
 47100  1  0  0  0  0
 47101  1  0  0  0  0
 48102  1  0  0  0  0
 48103  1  0  0  0  0
 48104  1  0  0  0  0
 49 50  1  0  0  0  0
 49105  1  0  0  0  0
 50 51  1  0  0  0  0
 51 52  1  0  0  0  0
 52106  1  0  0  0  0
 52107  1  0  0  0  0
 52108  1  0  0  0  0
M  END
>  <Energy>
139.725

$$$$