71492431
  -OEChem-03242010103D

 63 66  0     1  0  0  0  0  0999 V2000
   -0.2737    4.3640   -2.3861 F   0  0  0  0  0  0  0  0  0  0  0  0
    0.8958   -1.4728   -0.7787 O   0  0  0  0  0  0  0  0  0  0  0  0
    0.1852    0.7896    0.8559 O   0  0  0  0  0  0  0  0  0  0  0  0
    4.7284   -0.2942    1.9406 O   0  0  0  0  0  0  0  0  0  0  0  0
    5.2563   -1.5343   -2.6225 O   0  0  0  0  0  0  0  0  0  0  0  0
   -3.6220   -0.1645   -2.4264 O   0  0  0  0  0  0  0  0  0  0  0  0
   -4.4697   -3.1661    1.2081 O   0  0  0  0  0  0  0  0  0  0  0  0
   -5.3964   -1.6888   -0.9437 O   0  0  0  0  0  0  0  0  0  0  0  0
   -0.3007    1.6521    2.9342 O   0  0  0  0  0  0  0  0  0  0  0  0
    0.4271   -0.4941    1.4335 C   0  0  1  0  0  0  0  0  0  0  0  0
    0.1081   -1.5975    0.4163 C   0  0  1  0  0  0  0  0  0  0  0  0
    1.8950   -0.5911    1.8442 C   0  0  0  0  0  0  0  0  0  0  0  0
    2.7749   -0.8512    0.6513 C   0  0  0  0  0  0  0  0  0  0  0  0
   -1.3650   -1.6213    0.0528 C   0  0  0  0  0  0  0  0  0  0  0  0
    2.2367   -1.2782   -0.5692 C   0  0  0  0  0  0  0  0  0  0  0  0
    4.1620   -0.6843    0.7627 C   0  0  0  0  0  0  0  0  0  0  0  0
    3.0689   -1.4947   -1.6705 C   0  0  0  0  0  0  0  0  0  0  0  0
   -2.2560   -2.3896    0.8022 C   0  0  0  0  0  0  0  0  0  0  0  0
   -1.8280   -0.8753   -1.0311 C   0  0  0  0  0  0  0  0  0  0  0  0
    4.9931   -0.9146   -0.3342 C   0  0  0  0  0  0  0  0  0  0  0  0
    4.4463   -1.3155   -1.5511 C   0  0  0  0  0  0  0  0  0  0  0  0
   -3.1821   -0.8973   -1.3654 C   0  0  0  0  0  0  0  0  0  0  0  0
   -3.6100   -2.4119    0.4677 C   0  0  0  0  0  0  0  0  0  0  0  0
   -4.0732   -1.6656   -0.6160 C   0  0  0  0  0  0  0  0  0  0  0  0
   -0.1715    1.7703    1.7256 C   0  0  0  0  0  0  0  0  0  0  0  0
   -0.3935    3.0487    1.0039 C   0  0  0  0  0  0  0  0  0  0  0  0
    5.1152   -1.3263    2.8446 C   0  0  0  0  0  0  0  0  0  0  0  0
   -0.2257    3.1069   -0.3796 C   0  0  0  0  0  0  0  0  0  0  0  0
   -0.7693    4.1917    1.7097 C   0  0  0  0  0  0  0  0  0  0  0  0
    6.6558   -1.3320   -2.4303 C   0  0  0  0  0  0  0  0  0  0  0  0
   -2.6462    0.5932   -3.1393 C   0  0  0  0  0  0  0  0  0  0  0  0
   -3.9143   -3.8986    2.2988 C   0  0  0  0  0  0  0  0  0  0  0  0
   -6.2317   -0.7094   -0.3306 C   0  0  0  0  0  0  0  0  0  0  0  0
   -0.4335    4.3082   -1.0575 C   0  0  0  0  0  0  0  0  0  0  0  0
   -0.9769    5.3931    1.0318 C   0  0  0  0  0  0  0  0  0  0  0  0
   -0.8093    5.4513   -0.3518 C   0  0  0  0  0  0  0  0  0  0  0  0
   -0.2067   -0.6348    2.3193 H   0  0  0  0  0  0  0  0  0  0  0  0
    0.3545   -2.5784    0.8490 H   0  0  0  0  0  0  0  0  0  0  0  0
    2.0141   -1.4261    2.5445 H   0  0  0  0  0  0  0  0  0  0  0  0
    2.2078    0.3325    2.3444 H   0  0  0  0  0  0  0  0  0  0  0  0
    2.6448   -1.8099   -2.6208 H   0  0  0  0  0  0  0  0  0  0  0  0
   -1.8386   -2.9456    1.6349 H   0  0  0  0  0  0  0  0  0  0  0  0
   -1.1009   -0.2834   -1.5753 H   0  0  0  0  0  0  0  0  0  0  0  0
    6.0561   -0.7621   -0.1785 H   0  0  0  0  0  0  0  0  0  0  0  0
    5.4574   -0.8584    3.7718 H   0  0  0  0  0  0  0  0  0  0  0  0
    4.2747   -1.9871    3.0769 H   0  0  0  0  0  0  0  0  0  0  0  0
    5.9406   -1.9084    2.4226 H   0  0  0  0  0  0  0  0  0  0  0  0
    0.0660    2.2426   -0.9692 H   0  0  0  0  0  0  0  0  0  0  0  0
   -0.9052    4.1673    2.7876 H   0  0  0  0  0  0  0  0  0  0  0  0
    7.1474   -1.5493   -3.3843 H   0  0  0  0  0  0  0  0  0  0  0  0
    7.0659   -2.0308   -1.6933 H   0  0  0  0  0  0  0  0  0  0  0  0
    6.8819   -0.2888   -2.1850 H   0  0  0  0  0  0  0  0  0  0  0  0
   -2.1982    1.3690   -2.5091 H   0  0  0  0  0  0  0  0  0  0  0  0
   -1.8949   -0.0521   -3.6072 H   0  0  0  0  0  0  0  0  0  0  0  0
   -3.1699    1.1090   -3.9509 H   0  0  0  0  0  0  0  0  0  0  0  0
   -3.1957   -4.6509    1.9561 H   0  0  0  0  0  0  0  0  0  0  0  0
   -3.4923   -3.2327    3.0592 H   0  0  0  0  0  0  0  0  0  0  0  0
   -4.7381   -4.4409    2.7746 H   0  0  0  0  0  0  0  0  0  0  0  0
   -7.2535   -0.8566   -0.6910 H   0  0  0  0  0  0  0  0  0  0  0  0
   -5.9069    0.2996   -0.6034 H   0  0  0  0  0  0  0  0  0  0  0  0
   -6.2251   -0.8241    0.7580 H   0  0  0  0  0  0  0  0  0  0  0  0
   -1.2694    6.2833    1.5811 H   0  0  0  0  0  0  0  0  0  0  0  0
   -0.9713    6.3863   -0.8798 H   0  0  0  0  0  0  0  0  0  0  0  0
  1 34  1  0  0  0  0
  2 11  1  0  0  0  0
  2 15  1  0  0  0  0
  3 10  1  0  0  0  0
  3 25  1  0  0  0  0
  4 16  1  0  0  0  0
  4 27  1  0  0  0  0
  5 21  1  0  0  0  0
  5 30  1  0  0  0  0
  6 22  1  0  0  0  0
  6 31  1  0  0  0  0
  7 23  1  0  0  0  0
  7 32  1  0  0  0  0
  8 24  1  0  0  0  0
  8 33  1  0  0  0  0
  9 25  2  0  0  0  0
 10 11  1  0  0  0  0
 10 12  1  0  0  0  0
 10 37  1  0  0  0  0
 11 14  1  0  0  0  0
 11 38  1  0  0  0  0
 12 13  1  0  0  0  0
 12 39  1  0  0  0  0
 12 40  1  0  0  0  0
 13 15  2  0  0  0  0
 13 16  1  0  0  0  0
 14 18  2  0  0  0  0
 14 19  1  0  0  0  0
 15 17  1  0  0  0  0
 16 20  2  0  0  0  0
 17 21  2  0  0  0  0
 17 41  1  0  0  0  0
 18 23  1  0  0  0  0
 18 42  1  0  0  0  0
 19 22  2  0  0  0  0
 19 43  1  0  0  0  0
 20 21  1  0  0  0  0
 20 44  1  0  0  0  0
 22 24  1  0  0  0  0
 23 24  2  0  0  0  0
 25 26  1  0  0  0  0
 26 28  2  0  0  0  0
 26 29  1  0  0  0  0
 27 45  1  0  0  0  0
 27 46  1  0  0  0  0
 27 47  1  0  0  0  0
 28 34  1  0  0  0  0
 28 48  1  0  0  0  0
 29 35  2  0  0  0  0
 29 49  1  0  0  0  0
 30 50  1  0  0  0  0
 30 51  1  0  0  0  0
 30 52  1  0  0  0  0
 31 53  1  0  0  0  0
 31 54  1  0  0  0  0
 31 55  1  0  0  0  0
 32 56  1  0  0  0  0
 32 57  1  0  0  0  0
 32 58  1  0  0  0  0
 33 59  1  0  0  0  0
 33 60  1  0  0  0  0
 33 61  1  0  0  0  0
 34 36  2  0  0  0  0
 35 36  1  0  0  0  0
 35 62  1  0  0  0  0
 36 63  1  0  0  0  0
M  END
> <PUBCHEM_COMPOUND_CID>
71492431

> <PUBCHEM_CONFORMER_RMSD>
1

> <PUBCHEM_CONFORMER_DIVERSEORDER>
1
22
20
26
31
14
13
11
15
28
29
23
12
16
9
6
25
2
30
4
21
18
27
17
5
3
19
24
8
10
7

> <PUBCHEM_MMFF94_PARTIAL_CHARGES>
44
1 -0.19
10 0.28
11 0.42
12 0.14
13 -0.14
14 -0.14
15 0.08
16 0.08
17 -0.15
18 -0.15
19 -0.15
2 -0.36
20 -0.15
21 0.08
22 0.08
23 0.08
24 0.08
25 0.63
26 0.09
27 0.28
28 -0.15
29 -0.15
3 -0.43
30 0.28
31 0.28
32 0.28
33 0.28
34 0.19
35 -0.15
36 -0.15
4 -0.36
41 0.15
42 0.15
43 0.15
44 0.15
48 0.15
49 0.15
5 -0.36
6 -0.36
62 0.15
63 0.15
7 -0.36
8 -0.36
9 -0.57

> <PUBCHEM_EFFECTIVE_ROTOR_COUNT>
9.8

> <PUBCHEM_PHARMACOPHORE_FEATURES>
11
1 2 acceptor
1 4 acceptor
1 5 acceptor
1 6 acceptor
1 7 acceptor
1 8 acceptor
1 9 acceptor
6 13 15 16 17 20 21 rings
6 14 18 19 22 23 24 rings
6 2 10 11 12 13 15 rings
6 26 28 29 34 35 36 rings

> <PUBCHEM_HEAVY_ATOM_COUNT>
36

> <PUBCHEM_ATOM_DEF_STEREO_COUNT>
2

> <PUBCHEM_ATOM_UDEF_STEREO_COUNT>
0

> <PUBCHEM_BOND_DEF_STEREO_COUNT>
0

> <PUBCHEM_BOND_UDEF_STEREO_COUNT>
0

> <PUBCHEM_ISOTOPIC_ATOM_COUNT>
0

> <PUBCHEM_COMPONENT_COUNT>
1

> <PUBCHEM_CACTVS_TAUTO_COUNT>
1

> <PUBCHEM_CONFORMER_ID>
0442E34F00000001

> <PUBCHEM_MMFF94_ENERGY>
152.3409

> <PUBCHEM_FEATURE_SELFOVERLAP>
55.866

> <PUBCHEM_SHAPE_FINGERPRINT>
10462674 369 18114170990821591439
10764073 3 13684648657164245324
10815517 723 18128555790290306225
11421498 54 17969488334586725451
11445158 3 17840890756288897559
11488393 25 17974571608728040913
11991303 11 17836666131349325721
12160290 23 17985543347287539642
12741549 16 18200014262165059457
12788726 201 18336262323604773395
133893 2 17621009385377526119
14294032 229 18051426075650896056
150020 26 17686034494686827697
15198563 99 18340782446050927828
15219462 58 18269829823230134054
15444296 121 18266765548915993137
15463212 79 17617638978496051776
17357779 13 18059842965830626642
1813 80 18130508629677030250
19301676 85 16041714352763339854
20600515 1 18410004472525158818
21285901 2 18060696178548825862
21304303 282 17832397844443059216
21365058 113 18269284611195557767
21641784 216 18335702702583452572
23559900 14 17679003045334826303
24771750 20 17329157278275313804
24893989 43 16470564866232151917
437795 70 17772158983288337325
44802255 64 15670784338688360631
469060 322 18263369101009596585
46939830 39 18261693518899688009
5080951 261 17558823988850543274
5081480 168 18338783633170320389
6086070 43 18118658090018255307
6287921 2 17540529550004331119
9658208 31 17769093445832258624

> <PUBCHEM_SHAPE_MULTIPOLES>
686.63
11.18
6.38
2.97
7.9
13.01
-0.39
-13.42
-3.96
-6.46
1.34
1.71
-0.17
1.86

> <PUBCHEM_SHAPE_SELFOVERLAP>
1490.97

> <PUBCHEM_SHAPE_VOLUME>
378.8

> <PUBCHEM_COORDINATE_TYPE>
2
5
10

$$$$