134129987
  -OEChem-03242010103D

 51 54  0     0  0  0  0  0  0999 V2000
   -1.7167    3.7571    0.2062 O   0  0  0  0  0  0  0  0  0  0  0  0
    4.2084   -4.3754    0.5725 O   0  0  0  0  0  0  0  0  0  0  0  0
   -1.7389    1.4203   -0.0463 N   0  0  0  0  0  0  0  0  0  0  0  0
   -0.9506   -2.5009   -0.1811 N   0  0  0  0  0  0  0  0  0  0  0  0
   -1.3364   -1.2900    0.2454 N   0  0  0  0  0  0  0  0  0  0  0  0
   -2.9705   -2.4678   -0.7890 N   0  0  0  0  0  0  0  0  0  0  0  0
   -1.8866   -3.2340   -0.7996 N   0  0  0  0  0  0  0  0  0  0  0  0
    4.5811    2.7685   -0.6401 C   0  0  0  0  0  0  0  0  0  0  0  0
    3.0994    2.7478   -0.4712 C   0  0  0  0  0  0  0  0  0  0  0  0
    5.3044    2.0103    0.4816 C   0  0  0  0  0  0  0  0  0  0  0  0
    0.3280    2.7081   -0.1551 C   0  0  0  0  0  0  0  0  0  0  0  0
    2.4661    3.7550    0.2571 C   0  0  0  0  0  0  0  0  0  0  0  0
    2.3470    1.7208   -1.0412 C   0  0  0  0  0  0  0  0  0  0  0  0
   -3.0914    1.0949    0.1010 C   0  0  0  0  0  0  0  0  0  0  0  0
    1.0804    3.7351    0.4150 C   0  0  0  0  0  0  0  0  0  0  0  0
    0.9613    1.7010   -0.8831 C   0  0  0  0  0  0  0  0  0  0  0  0
   -3.5303   -0.2280    0.0486 C   0  0  0  0  0  0  0  0  0  0  0  0
   -1.1489    2.6875    0.0125 C   0  0  0  0  0  0  0  0  0  0  0  0
    6.8121    2.0062    0.2848 C   0  0  0  0  0  0  0  0  0  0  0  0
   -2.6091   -1.3146   -0.1583 C   0  0  0  0  0  0  0  0  0  0  0  0
   -4.0083    2.1264    0.3028 C   0  0  0  0  0  0  0  0  0  0  0  0
   -4.8861   -0.5194    0.1981 C   0  0  0  0  0  0  0  0  0  0  0  0
   -5.3643    1.8351    0.4524 C   0  0  0  0  0  0  0  0  0  0  0  0
   -5.8031    0.5122    0.4000 C   0  0  0  0  0  0  0  0  0  0  0  0
    0.3436   -2.9705    0.0072 C   0  0  0  0  0  0  0  0  0  0  0  0
    1.2867   -2.1746    0.6575 C   0  0  0  0  0  0  0  0  0  0  0  0
    0.6991   -4.2386   -0.4524 C   0  0  0  0  0  0  0  0  0  0  0  0
    2.5853   -2.6467    0.8480 C   0  0  0  0  0  0  0  0  0  0  0  0
    1.9976   -4.7107   -0.2619 C   0  0  0  0  0  0  0  0  0  0  0  0
    2.9408   -3.9149    0.3883 C   0  0  0  0  0  0  0  0  0  0  0  0
    4.8475    2.3348   -1.6129 H   0  0  0  0  0  0  0  0  0  0  0  0
    4.9363    3.8067   -0.6750 H   0  0  0  0  0  0  0  0  0  0  0  0
    5.0700    2.4647    1.4520 H   0  0  0  0  0  0  0  0  0  0  0  0
    4.9477    0.9737    0.5240 H   0  0  0  0  0  0  0  0  0  0  0  0
    3.0416    4.5588    0.7086 H   0  0  0  0  0  0  0  0  0  0  0  0
    2.8283    0.9335   -1.6156 H   0  0  0  0  0  0  0  0  0  0  0  0
    0.6072    4.5262    0.9908 H   0  0  0  0  0  0  0  0  0  0  0  0
    0.4158    0.9037   -1.3785 H   0  0  0  0  0  0  0  0  0  0  0  0
    7.2996    1.4605    1.0987 H   0  0  0  0  0  0  0  0  0  0  0  0
    7.2081    3.0266    0.2740 H   0  0  0  0  0  0  0  0  0  0  0  0
    7.0824    1.5222   -0.6591 H   0  0  0  0  0  0  0  0  0  0  0  0
   -1.1208    0.6254   -0.1612 H   0  0  0  0  0  0  0  0  0  0  0  0
   -3.7613    3.1764    0.3505 H   0  0  0  0  0  0  0  0  0  0  0  0
   -5.2545   -1.5421    0.1669 H   0  0  0  0  0  0  0  0  0  0  0  0
   -6.0798    2.6373    0.6085 H   0  0  0  0  0  0  0  0  0  0  0  0
   -6.8587    0.2855    0.5174 H   0  0  0  0  0  0  0  0  0  0  0  0
    1.0485   -1.1816    1.0299 H   0  0  0  0  0  0  0  0  0  0  0  0
   -0.0063   -4.8888   -0.9633 H   0  0  0  0  0  0  0  0  0  0  0  0
    3.3112   -2.0165    1.3550 H   0  0  0  0  0  0  0  0  0  0  0  0
    2.2692   -5.6992   -0.6223 H   0  0  0  0  0  0  0  0  0  0  0  0
    4.7258   -3.6957    1.0377 H   0  0  0  0  0  0  0  0  0  0  0  0
  1 18  2  0  0  0  0
  2 30  1  0  0  0  0
  2 51  1  0  0  0  0
  3 14  1  0  0  0  0
  3 18  1  0  0  0  0
  3 42  1  0  0  0  0
  4  5  1  0  0  0  0
  4  7  1  0  0  0  0
  4 25  1  0  0  0  0
  5 20  2  0  0  0  0
  6  7  2  0  0  0  0
  6 20  1  0  0  0  0
  8  9  1  0  0  0  0
  8 10  1  0  0  0  0
  8 31  1  0  0  0  0
  8 32  1  0  0  0  0
  9 12  2  0  0  0  0
  9 13  1  0  0  0  0
 10 19  1  0  0  0  0
 10 33  1  0  0  0  0
 10 34  1  0  0  0  0
 11 15  2  0  0  0  0
 11 16  1  0  0  0  0
 11 18  1  0  0  0  0
 12 15  1  0  0  0  0
 12 35  1  0  0  0  0
 13 16  2  0  0  0  0
 13 36  1  0  0  0  0
 14 17  1  0  0  0  0
 14 21  2  0  0  0  0
 15 37  1  0  0  0  0
 16 38  1  0  0  0  0
 17 20  1  0  0  0  0
 17 22  2  0  0  0  0
 19 39  1  0  0  0  0
 19 40  1  0  0  0  0
 19 41  1  0  0  0  0
 21 23  1  0  0  0  0
 21 43  1  0  0  0  0
 22 24  1  0  0  0  0
 22 44  1  0  0  0  0
 23 24  2  0  0  0  0
 23 45  1  0  0  0  0
 24 46  1  0  0  0  0
 25 26  2  0  0  0  0
 25 27  1  0  0  0  0
 26 28  1  0  0  0  0
 26 47  1  0  0  0  0
 27 29  2  0  0  0  0
 27 48  1  0  0  0  0
 28 30  2  0  0  0  0
 28 49  1  0  0  0  0
 29 30  1  0  0  0  0
 29 50  1  0  0  0  0
M  END
> <PUBCHEM_COMPOUND_CID>
134129987

> <PUBCHEM_CONFORMER_RMSD>
0.8

> <PUBCHEM_CONFORMER_DIVERSEORDER>
1
34
16
22
58
33
45
14
46
41
50
2
53
24
48
3
49
26
27
8
19
56
18
32
7
40
47
20
13
57
37
17
29
23
12
51
43
9
44
38
6
42
55
11
25
5
31
52
35
10
30
39
15
36
21
4
54
28

> <PUBCHEM_MMFF94_PARTIAL_CHARGES>
42
1 -0.57
11 0.09
12 -0.15
13 -0.15
14 0.12
15 -0.15
16 -0.15
17 0.05
18 0.54
2 -0.53
20 0.46
21 -0.15
22 -0.15
23 -0.15
24 -0.15
25 -0.02
26 -0.15
27 -0.15
28 -0.15
29 -0.15
3 -0.55
30 0.08
35 0.15
36 0.15
37 0.15
38 0.15
4 0.86
42 0.37
43 0.15
44 0.15
45 0.15
46 0.15
47 0.15
48 0.15
49 0.15
5 -0.71
50 0.15
51 0.45
6 -0.23
7 -0.42
8 0.14
9 -0.14

> <PUBCHEM_EFFECTIVE_ROTOR_COUNT>
7

> <PUBCHEM_PHARMACOPHORE_FEATURES>
9
1 1 acceptor
1 19 hydrophobe
1 2 donor
1 3 donor
3 5 6 20 cation
5 4 5 6 7 20 rings
6 14 17 21 22 23 24 rings
6 25 26 27 28 29 30 rings
6 9 11 12 13 15 16 rings

> <PUBCHEM_HEAVY_ATOM_COUNT>
30

> <PUBCHEM_ATOM_DEF_STEREO_COUNT>
0

> <PUBCHEM_ATOM_UDEF_STEREO_COUNT>
0

> <PUBCHEM_BOND_DEF_STEREO_COUNT>
0

> <PUBCHEM_BOND_UDEF_STEREO_COUNT>
0

> <PUBCHEM_ISOTOPIC_ATOM_COUNT>
0

> <PUBCHEM_COMPONENT_COUNT>
1

> <PUBCHEM_CACTVS_TAUTO_COUNT>
492

> <PUBCHEM_CONFORMER_ID>
07FEA94300000001

> <PUBCHEM_MMFF94_ENERGY>
84.1603

> <PUBCHEM_FEATURE_SELFOVERLAP>
45.671

> <PUBCHEM_SHAPE_FINGERPRINT>
10190108 129 17831884691375092491
10693767 8 16547197837359264711
1100329 8 18410576175748497414
11135926 11 18408599266642626045
11513181 2 18273213119155808398
12156800 1 16198997652911618263
138480 1 18266180517823591205
14028597 1 17773901795080343297
140371 6 17619354208720369029
14659021 117 17404012021225144016
14725015 67 17765152057075754951
14790565 3 18265617756828138584
14866123 147 18124036994767753435
15297060 5 18272088348872187872
15320467 1 18410855494978614544
15400415 2 18266461090758190157
15444296 8 15792277306580901055
15927050 60 18340772636540464383
15961568 22 17979920402053560438
16120349 306 18338228388245725576
16719943 64 18265899240610697864
167882 2 18409166572462810677
17627616 140 18409167714079917254
17859628 97 18265616657384829273
18336668 15 17681004993224353831
19611394 137 18116454573625967515
20642791 35 18339933623427471934
20771845 165 17825094918783584421
21133410 171 16471726230115829374
21344244 246 18337658777377958487
21796203 349 17546210360985322720
23516275 137 18189074057097335944
3383291 50 18123748926605001363
338550 245 18262522614706237100
373842 8 18336543811999181786
45266715 3 17264091426985429125
5265222 85 18118417369427333468
5385378 56 18339092523108060065
57091435 65 18409174281280026591
9981440 41 18264212585326040739

> <PUBCHEM_SHAPE_MULTIPOLES>
580.74
11.28
7.78
0.83
1.57
7.28
0.05
-7.42
-1.66
7.62
-0.1
0.26
0.06
-1.35

> <PUBCHEM_SHAPE_SELFOVERLAP>
1271.202

> <PUBCHEM_SHAPE_VOLUME>
313.7

> <PUBCHEM_COORDINATE_TYPE>
2
5
10

$$$$