137660556
  -OEChem-03242010103D

 59 62  0     0  0  0  0  0  0999 V2000
   -4.7785   -0.3271    1.2417 O   0  0  0  0  0  0  0  0  0  0  0  0
    3.7893    0.9322   -0.2132 N   0  0  0  0  0  0  0  0  0  0  0  0
    5.8049   -0.6776    1.0921 N   0  0  0  0  0  0  0  0  0  0  0  0
   -1.3858    0.4680   -0.8186 N   0  0  0  0  0  0  0  0  0  0  0  0
    4.6409    1.4880    0.8454 C   0  0  0  0  0  0  0  0  0  0  0  0
    4.4971   -0.1337   -0.9329 C   0  0  0  0  0  0  0  0  0  0  0  0
    3.3551    1.9807   -1.1343 C   0  0  0  0  0  0  0  0  0  0  0  0
    5.0974    0.3890    1.8111 C   0  0  0  0  0  0  0  0  0  0  0  0
    4.9547   -1.2329    0.0320 C   0  0  0  0  0  0  0  0  0  0  0  0
    2.1324    1.5183   -1.9263 C   0  0  0  0  0  0  0  0  0  0  0  0
    0.9603    1.1957   -0.9931 C   0  0  0  0  0  0  0  0  0  0  0  0
   -0.2921    0.7604   -1.7493 C   0  0  0  0  0  0  0  0  0  0  0  0
   -1.6899   -0.8824   -0.5323 C   0  0  0  0  0  0  0  0  0  0  0  0
   -2.0625    1.5482   -0.2076 C   0  0  0  0  0  0  0  0  0  0  0  0
    6.2373   -1.7265    2.0137 C   0  0  0  0  0  0  0  0  0  0  0  0
   -2.8480   -1.1906    0.2080 C   0  0  0  0  0  0  0  0  0  0  0  0
   -3.2300    1.3012    0.5406 C   0  0  0  0  0  0  0  0  0  0  0  0
   -0.8862   -1.9653   -0.9332 C   0  0  0  0  0  0  0  0  0  0  0  0
   -3.7066   -0.0905    0.6998 C   0  0  0  0  0  0  0  0  0  0  0  0
   -3.2061   -2.5138    0.5030 C   0  0  0  0  0  0  0  0  0  0  0  0
   -1.6295    2.8847   -0.2853 C   0  0  0  0  0  0  0  0  0  0  0  0
   -1.2370   -3.2872   -0.6374 C   0  0  0  0  0  0  0  0  0  0  0  0
   -2.3984   -3.5613    0.0748 C   0  0  0  0  0  0  0  0  0  0  0  0
   -3.9501    2.3383    1.1507 C   0  0  0  0  0  0  0  0  0  0  0  0
    0.4462   -1.8184   -1.6029 C   0  0  0  0  0  0  0  0  0  0  0  0
   -2.3421    3.9225    0.3256 C   0  0  0  0  0  0  0  0  0  0  0  0
   -3.5038    3.6504    1.0375 C   0  0  0  0  0  0  0  0  0  0  0  0
   -2.7689   -4.9705    0.3904 C   0  0  0  0  0  0  0  0  0  0  0  0
    5.3675    0.2662   -1.4708 H   0  0  0  0  0  0  0  0  0  0  0  0
    3.8461   -0.6073   -1.6750 H   0  0  0  0  0  0  0  0  0  0  0  0
    4.0805    2.2353    1.4204 H   0  0  0  0  0  0  0  0  0  0  0  0
    5.5172    1.9936    0.4172 H   0  0  0  0  0  0  0  0  0  0  0  0
    4.1596    2.2815   -1.8172 H   0  0  0  0  0  0  0  0  0  0  0  0
    3.0679    2.8817   -0.5762 H   0  0  0  0  0  0  0  0  0  0  0  0
    5.7647    0.8398    2.5557 H   0  0  0  0  0  0  0  0  0  0  0  0
    4.2287   -0.0119    2.3508 H   0  0  0  0  0  0  0  0  0  0  0  0
    4.0770   -1.7384    0.4577 H   0  0  0  0  0  0  0  0  0  0  0  0
    5.5172   -1.9814   -0.5393 H   0  0  0  0  0  0  0  0  0  0  0  0
    2.3612    0.6577   -2.5630 H   0  0  0  0  0  0  0  0  0  0  0  0
    1.8348    2.3287   -2.6037 H   0  0  0  0  0  0  0  0  0  0  0  0
    1.2442    0.4626   -0.2337 H   0  0  0  0  0  0  0  0  0  0  0  0
    0.7878    2.0888   -0.3885 H   0  0  0  0  0  0  0  0  0  0  0  0
   -0.6024    1.6355   -2.3430 H   0  0  0  0  0  0  0  0  0  0  0  0
   -0.1675    0.0824   -2.5845 H   0  0  0  0  0  0  0  0  0  0  0  0
    6.8039   -2.4974    1.4798 H   0  0  0  0  0  0  0  0  0  0  0  0
    5.3929   -2.2078    2.5202 H   0  0  0  0  0  0  0  0  0  0  0  0
    6.9078   -1.3154    2.7765 H   0  0  0  0  0  0  0  0  0  0  0  0
   -4.1078   -2.7301    1.0706 H   0  0  0  0  0  0  0  0  0  0  0  0
   -0.7761    3.1999   -0.8740 H   0  0  0  0  0  0  0  0  0  0  0  0
   -0.6063   -4.1163   -0.9514 H   0  0  0  0  0  0  0  0  0  0  0  0
   -4.8530    2.1403    1.7218 H   0  0  0  0  0  0  0  0  0  0  0  0
    0.3772   -1.6517   -2.6800 H   0  0  0  0  0  0  0  0  0  0  0  0
    1.1671   -1.2139   -1.0736 H   0  0  0  0  0  0  0  0  0  0  0  0
    0.9618   -2.7921   -1.5736 H   0  0  0  0  0  0  0  0  0  0  0  0
   -1.9937    4.9471    0.2287 H   0  0  0  0  0  0  0  0  0  0  0  0
   -4.0577    4.4576    1.5071 H   0  0  0  0  0  0  0  0  0  0  0  0
   -3.4150   -5.0264    1.2731 H   0  0  0  0  0  0  0  0  0  0  0  0
   -1.8785   -5.5704    0.6073 H   0  0  0  0  0  0  0  0  0  0  0  0
   -3.2985   -5.4182   -0.4565 H   0  0  0  0  0  0  0  0  0  0  0  0
  1 19  2  0  0  0  0
  2  5  1  0  0  0  0
  2  6  1  0  0  0  0
  2  7  1  0  0  0  0
  3  8  1  0  0  0  0
  3  9  1  0  0  0  0
  3 15  1  0  0  0  0
  4 12  1  0  0  0  0
  4 13  1  0  0  0  0
  4 14  1  0  0  0  0
  5  8  1  0  0  0  0
  5 31  1  0  0  0  0
  5 32  1  0  0  0  0
  6  9  1  0  0  0  0
  6 29  1  0  0  0  0
  6 30  1  0  0  0  0
  7 10  1  0  0  0  0
  7 33  1  0  0  0  0
  7 34  1  0  0  0  0
  8 35  1  0  0  0  0
  8 36  1  0  0  0  0
  9 37  1  0  0  0  0
  9 38  1  0  0  0  0
 10 11  1  0  0  0  0
 10 39  1  0  0  0  0
 10 40  1  0  0  0  0
 11 12  1  0  0  0  0
 11 41  1  0  0  0  0
 11 42  1  0  0  0  0
 12 43  1  0  0  0  0
 12 44  1  0  0  0  0
 13 16  1  0  0  0  0
 13 18  2  0  0  0  0
 14 17  1  0  0  0  0
 14 21  2  0  0  0  0
 15 45  1  0  0  0  0
 15 46  1  0  0  0  0
 15 47  1  0  0  0  0
 16 19  1  0  0  0  0
 16 20  2  0  0  0  0
 17 19  1  0  0  0  0
 17 24  2  0  0  0  0
 18 22  1  0  0  0  0
 18 25  1  0  0  0  0
 20 23  1  0  0  0  0
 20 48  1  0  0  0  0
 21 26  1  0  0  0  0
 21 49  1  0  0  0  0
 22 23  2  0  0  0  0
 22 50  1  0  0  0  0
 23 28  1  0  0  0  0
 24 27  1  0  0  0  0
 24 51  1  0  0  0  0
 25 52  1  0  0  0  0
 25 53  1  0  0  0  0
 25 54  1  0  0  0  0
 26 27  2  0  0  0  0
 26 55  1  0  0  0  0
 27 56  1  0  0  0  0
 28 57  1  0  0  0  0
 28 58  1  0  0  0  0
 28 59  1  0  0  0  0
M  END
> <PUBCHEM_COMPOUND_CID>
137660556

> <PUBCHEM_CONFORMER_RMSD>
0.8

> <PUBCHEM_CONFORMER_DIVERSEORDER>
4
20
30
29
37
43
6
31
23
2
36
32
44
13
8
41
3
25
35
33
5
15
27
19
34
24
39
10
40
12
22
28
38
18
9
1
14
16
42
26
17
11
21
7

> <PUBCHEM_MMFF94_PARTIAL_CHARGES>
32
1 -0.57
12 0.37
13 0.1
14 0.1
15 0.27
16 0.09
17 0.09
18 -0.14
19 0.4
2 -0.81
20 -0.15
21 -0.15
22 -0.15
23 -0.14
24 -0.15
25 0.14
26 -0.15
27 -0.15
28 0.14
3 -0.81
4 -0.57
48 0.15
49 0.15
5 0.27
50 0.15
51 0.15
55 0.15
56 0.15
6 0.27
7 0.27
8 0.27
9 0.27

> <PUBCHEM_EFFECTIVE_ROTOR_COUNT>
6.2

> <PUBCHEM_PHARMACOPHORE_FEATURES>
8
1 1 acceptor
1 2 cation
1 3 cation
1 4 cation
6 13 16 18 20 22 23 rings
6 14 17 21 24 26 27 rings
6 2 3 5 6 8 9 rings
6 4 13 14 16 17 19 rings

> <PUBCHEM_HEAVY_ATOM_COUNT>
28

> <PUBCHEM_ATOM_DEF_STEREO_COUNT>
0

> <PUBCHEM_ATOM_UDEF_STEREO_COUNT>
0

> <PUBCHEM_BOND_DEF_STEREO_COUNT>
0

> <PUBCHEM_BOND_UDEF_STEREO_COUNT>
0

> <PUBCHEM_ISOTOPIC_ATOM_COUNT>
0

> <PUBCHEM_COMPONENT_COUNT>
1

> <PUBCHEM_CACTVS_TAUTO_COUNT>
-1

> <PUBCHEM_CONFORMER_ID>
0834888C00000004

> <PUBCHEM_MMFF94_ENERGY>
105.4899

> <PUBCHEM_FEATURE_SELFOVERLAP>
40.644

> <PUBCHEM_SHAPE_FINGERPRINT>
10074138 170 18412263960831288827
10319926 262 18342461392333427822
10928967 22 17531795867357968114
1100329 8 17980221978262348641
12107183 9 18263363590846039720
12422481 6 18264767650067432042
12633257 1 18058749003374651785
12788726 201 18048614899359155718
12925494 130 18124595275743317841
13004483 165 18125442157711442583
13103583 49 18261385612651286194
13140716 1 17766868361042091177
13692114 37 18271811181742607863
13726171 33 17913518936743038064
14178342 30 18410293618846236390
14289278 72 18270691861815385270
14420673 8 18266745675976376022
14480069 147 15720785802755784994
14784336 7 17618213348662414214
14950920 106 18338781382839468424
15042514 8 18267037226724375183
15230672 131 18121231874956265390
15250474 111 18261675965135571726
15320294 125 18043242436822808752
15475509 35 16599299286710304395
15475509 8 10953747729298692673
15537594 2 17676490489539908682
16110190 28 18335415717833522870
16728300 4 18040439897611178715
17780758 139 18337096918019403216
17818456 19 18337117842598903020
1813 80 17095243657161658172
19319366 153 16892309248201720908
20554085 129 18057031407784020849
21033648 29 17489587827686036596
21591340 35 17049664218254860960
229767 44 18336825269553241528
23559900 14 18057353697565459340
3117164 225 18410854318320943370
345986 75 18047473606073538502
3886686 26 18265896852472393978
445580 182 18340189805705416200
508706 21 18271254845595554902
5104073 3 18338503193755332528
56633871 153 18261105262566331618
6371380 46 17982453686002797726
6823239 73 18128560265904353886
7064713 232 18339645542669558516
79837 15 18340213990080651585
9981440 41 17703220715926231765

> <PUBCHEM_SHAPE_MULTIPOLES>
555.41
11.86
5.3
1.66
20.47
2.7
0.01
0.4
-7.58
-7.61
-0.74
1.76
-0.18
-1.74

> <PUBCHEM_SHAPE_SELFOVERLAP>
1190.205

> <PUBCHEM_SHAPE_VOLUME>
308.4

> <PUBCHEM_COORDINATE_TYPE>
2
5
10

$$$$