137661643
  -OEChem-03242010103D

 52 55  0     0  0  0  0  0  0999 V2000
    6.3082   -0.0046   -0.2247 O   0  0  0  0  0  0  0  0  0  0  0  0
   -3.8794   -2.0135   -0.8486 O   0  0  0  0  0  0  0  0  0  0  0  0
    3.6616    1.0398   -0.1487 N   0  0  0  0  0  0  0  0  0  0  0  0
   -0.5449   -0.0623    0.3601 N   0  0  0  0  0  0  0  0  0  0  0  0
    2.6032    1.9242   -0.6319 C   0  0  0  0  0  0  0  0  0  0  0  0
    1.2588    1.1990   -0.7464 C   0  0  0  0  0  0  0  0  0  0  0  0
    0.7119    0.6603    0.5751 C   0  0  0  0  0  0  0  0  0  0  0  0
    4.0934    0.1162   -1.2070 C   0  0  0  0  0  0  0  0  0  0  0  0
    4.8088    1.8174    0.3398 C   0  0  0  0  0  0  0  0  0  0  0  0
   -1.7392    0.6815    0.2241 C   0  0  0  0  0  0  0  0  0  0  0  0
   -0.5205   -1.4754    0.3443 C   0  0  0  0  0  0  0  0  0  0  0  0
   -2.9234    0.0266   -0.1668 C   0  0  0  0  0  0  0  0  0  0  0  0
    5.9048    0.8737    0.8266 C   0  0  0  0  0  0  0  0  0  0  0  0
    5.2055   -0.7878   -0.6829 C   0  0  0  0  0  0  0  0  0  0  0  0
   -1.6741   -2.1847   -0.0434 C   0  0  0  0  0  0  0  0  0  0  0  0
   -1.8309    2.0632    0.4740 C   0  0  0  0  0  0  0  0  0  0  0  0
   -2.9003   -1.4350   -0.3953 C   0  0  0  0  0  0  0  0  0  0  0  0
   -4.1304    0.7202   -0.3353 C   0  0  0  0  0  0  0  0  0  0  0  0
    0.6007   -2.2409    0.7137 C   0  0  0  0  0  0  0  0  0  0  0  0
   -3.0341    2.7588    0.3116 C   0  0  0  0  0  0  0  0  0  0  0  0
   -4.1807    2.0893   -0.0980 C   0  0  0  0  0  0  0  0  0  0  0  0
   -1.6979   -3.5857   -0.0949 C   0  0  0  0  0  0  0  0  0  0  0  0
   -0.6611    2.9318    0.8234 C   0  0  0  0  0  0  0  0  0  0  0  0
    0.5806   -3.6392    0.6682 C   0  0  0  0  0  0  0  0  0  0  0  0
   -0.5653   -4.3105    0.2589 C   0  0  0  0  0  0  0  0  0  0  0  0
   -5.4550    2.8375   -0.2961 C   0  0  0  0  0  0  0  0  0  0  0  0
    2.4661    2.7585    0.0678 H   0  0  0  0  0  0  0  0  0  0  0  0
    2.8689    2.3715   -1.5985 H   0  0  0  0  0  0  0  0  0  0  0  0
    0.5480    1.8318   -1.2866 H   0  0  0  0  0  0  0  0  0  0  0  0
    1.3656    0.3500   -1.4347 H   0  0  0  0  0  0  0  0  0  0  0  0
    0.7272    1.3208    1.4333 H   0  0  0  0  0  0  0  0  0  0  0  0
    1.4966   -0.0037    0.9326 H   0  0  0  0  0  0  0  0  0  0  0  0
    4.5061    2.4639    1.1715 H   0  0  0  0  0  0  0  0  0  0  0  0
    5.2039    2.4550   -0.4618 H   0  0  0  0  0  0  0  0  0  0  0  0
    4.4619    0.6763   -2.0763 H   0  0  0  0  0  0  0  0  0  0  0  0
    3.2748   -0.5281   -1.5406 H   0  0  0  0  0  0  0  0  0  0  0  0
    5.5761    0.2835    1.6908 H   0  0  0  0  0  0  0  0  0  0  0  0
    5.5695   -1.4356   -1.4868 H   0  0  0  0  0  0  0  0  0  0  0  0
    4.8521   -1.4344    0.1298 H   0  0  0  0  0  0  0  0  0  0  0  0
    6.7833    1.4500    1.1341 H   0  0  0  0  0  0  0  0  0  0  0  0
   -5.0318    0.1966   -0.6440 H   0  0  0  0  0  0  0  0  0  0  0  0
    1.5380   -1.8225    1.0584 H   0  0  0  0  0  0  0  0  0  0  0  0
   -3.0899    3.8311    0.4869 H   0  0  0  0  0  0  0  0  0  0  0  0
   -2.5904   -4.1255   -0.3993 H   0  0  0  0  0  0  0  0  0  0  0  0
   -0.3009    2.7525    1.8397 H   0  0  0  0  0  0  0  0  0  0  0  0
    0.0960    3.0850    0.0685 H   0  0  0  0  0  0  0  0  0  0  0  0
   -1.0218    3.9677    0.9354 H   0  0  0  0  0  0  0  0  0  0  0  0
    1.4641   -4.2024    0.9558 H   0  0  0  0  0  0  0  0  0  0  0  0
   -0.5789   -5.3956    0.2241 H   0  0  0  0  0  0  0  0  0  0  0  0
   -5.9799    2.9447    0.6584 H   0  0  0  0  0  0  0  0  0  0  0  0
   -5.2641    3.8343   -0.7082 H   0  0  0  0  0  0  0  0  0  0  0  0
   -6.1164    2.3216   -1.0006 H   0  0  0  0  0  0  0  0  0  0  0  0
  1 13  1  0  0  0  0
  1 14  1  0  0  0  0
  2 17  2  0  0  0  0
  3  5  1  0  0  0  0
  3  8  1  0  0  0  0
  3  9  1  0  0  0  0
  4  7  1  0  0  0  0
  4 10  1  0  0  0  0
  4 11  1  0  0  0  0
  5  6  1  0  0  0  0
  5 27  1  0  0  0  0
  5 28  1  0  0  0  0
  6  7  1  0  0  0  0
  6 29  1  0  0  0  0
  6 30  1  0  0  0  0
  7 31  1  0  0  0  0
  7 32  1  0  0  0  0
  8 14  1  0  0  0  0
  8 35  1  0  0  0  0
  8 36  1  0  0  0  0
  9 13  1  0  0  0  0
  9 33  1  0  0  0  0
  9 34  1  0  0  0  0
 10 12  1  0  0  0  0
 10 16  2  0  0  0  0
 11 15  1  0  0  0  0
 11 19  2  0  0  0  0
 12 17  1  0  0  0  0
 12 18  2  0  0  0  0
 13 37  1  0  0  0  0
 13 40  1  0  0  0  0
 14 38  1  0  0  0  0
 14 39  1  0  0  0  0
 15 17  1  0  0  0  0
 15 22  2  0  0  0  0
 16 20  1  0  0  0  0
 16 23  1  0  0  0  0
 18 21  1  0  0  0  0
 18 41  1  0  0  0  0
 19 24  1  0  0  0  0
 19 42  1  0  0  0  0
 20 21  2  0  0  0  0
 20 43  1  0  0  0  0
 21 26  1  0  0  0  0
 22 25  1  0  0  0  0
 22 44  1  0  0  0  0
 23 45  1  0  0  0  0
 23 46  1  0  0  0  0
 23 47  1  0  0  0  0
 24 25  2  0  0  0  0
 24 48  1  0  0  0  0
 25 49  1  0  0  0  0
 26 50  1  0  0  0  0
 26 51  1  0  0  0  0
 26 52  1  0  0  0  0
M  END
> <PUBCHEM_COMPOUND_CID>
137661643

> <PUBCHEM_CONFORMER_RMSD>
0.8

> <PUBCHEM_CONFORMER_DIVERSEORDER>
1
3
5
6
4
2
8
7

> <PUBCHEM_MMFF94_PARTIAL_CHARGES>
31
1 -0.56
10 0.1
11 0.1
12 0.09
13 0.28
14 0.28
15 0.09
16 -0.14
17 0.4
18 -0.15
19 -0.15
2 -0.57
20 -0.15
21 -0.14
22 -0.15
23 0.14
24 -0.15
25 -0.15
26 0.14
3 -0.81
4 -0.57
41 0.15
42 0.15
43 0.15
44 0.15
48 0.15
49 0.15
5 0.27
7 0.37
8 0.27
9 0.27

> <PUBCHEM_EFFECTIVE_ROTOR_COUNT>
5.2

> <PUBCHEM_PHARMACOPHORE_FEATURES>
8
1 1 acceptor
1 2 acceptor
1 3 cation
1 4 cation
6 1 3 8 9 13 14 rings
6 10 12 16 18 20 21 rings
6 11 15 19 22 24 25 rings
6 4 10 11 12 15 17 rings

> <PUBCHEM_HEAVY_ATOM_COUNT>
26

> <PUBCHEM_ATOM_DEF_STEREO_COUNT>
0

> <PUBCHEM_ATOM_UDEF_STEREO_COUNT>
0

> <PUBCHEM_BOND_DEF_STEREO_COUNT>
0

> <PUBCHEM_BOND_UDEF_STEREO_COUNT>
0

> <PUBCHEM_ISOTOPIC_ATOM_COUNT>
0

> <PUBCHEM_COMPONENT_COUNT>
1

> <PUBCHEM_CACTVS_TAUTO_COUNT>
-1

> <PUBCHEM_CONFORMER_ID>
08348CCB00000001

> <PUBCHEM_MMFF94_ENERGY>
103.9798

> <PUBCHEM_FEATURE_SELFOVERLAP>
40.641

> <PUBCHEM_SHAPE_FINGERPRINT>
10190108 129 18337121167911288787
10411042 1 17689997160173459131
10693767 8 17482813955722900335
10940486 97 18189066437936200332
1100329 8 18194118516912484002
11370993 70 18412546496675379748
11513181 2 18201153257106415190
11578080 2 17170666680367406413
12107183 9 18262508196975252242
121448 382 18342461456251437625
12293681 160 18059852805933447161
12422481 6 17168984465804320638
12788726 201 17901396911076680786
13140716 1 18337387116101280371
13540713 5 17625253118969287193
13583140 156 17702943794248221192
138480 1 17400924098526372827
14028597 1 17773891800675881033
14659021 117 17912343618514414110
14790565 3 18125162632629149105
14866123 147 18340210799358183923
15042514 8 18119817056308500371
15297060 5 18272086063569901650
15927050 60 18341328899783791039
16120349 306 18334005065356965586
16719943 64 18409729556311772682
16752209 62 18337667624061294970
167882 2 18048030766954331157
17913733 40 18195549029433344305
19591789 44 18265902552389198947
19958102 18 18335693936549602204
20197701 30 18411136900961522452
20554085 129 18128515111932378737
20642791 105 18335137648248978205
20775438 99 16473426087392380535
21279426 13 18341898446469096254
23402539 116 18341890809595653484
23558518 356 17972040507333605616
23559900 14 18272088336119732176
3178227 256 18338815493686219249
3380486 145 17471587992809106739
338550 245 18334019380530396550
350125 39 18409729556659795883
38695281 34 18337110051554543067
4073 2 18411419553687765056
5085150 59 18271795792985938786
5283173 99 18341330080556866984
5309563 4 16824472696741481002
532947 4 18123196705796331614
5385378 56 18120944910383251633
559249 180 18407757032693947258
59755656 215 18268996397209613404
59755656 520 18408881806897612412
6138700 20 18193564359532460766
7226269 152 18273218594948791088
79837 15 18335712645147880411
9709674 26 18270971257937922478
9981440 41 18334860498130430891

> <PUBCHEM_SHAPE_MULTIPOLES>
513.37
11.21
4.87
0.89
14.04
4.59
0.04
-8.07
1.63
-3.83
-0.73
0.43
-0.05
-0.19

> <PUBCHEM_SHAPE_SELFOVERLAP>
1111.197

> <PUBCHEM_SHAPE_VOLUME>
281.1

> <PUBCHEM_COORDINATE_TYPE>
2
5
10

$$$$