23
 OpenBabel03292022253D

 95 98  0  0  1  0  0  0  0  0999 V2000
   15.9058   -4.6735   10.2597 C   0  0  0  0  0  0  0  0  0  0  0  0
   15.2090   -3.7194   11.0736 O   0  0  0  0  0  0  0  0  0  0  0  0
   14.7635   -2.6078   10.3974 C   0  0  0  0  0  0  0  0  0  0  0  0
   14.2928   -2.7467    9.0761 C   0  0  0  0  0  0  0  0  0  0  0  0
   14.0316   -1.6374    8.2729 C   0  0  0  0  0  0  0  0  0  0  0  0
   13.8677   -1.8113    6.7809 C   0  0  0  0  0  0  0  0  0  0  0  0
   12.5313   -1.3667    6.1980 C   0  0  0  0  0  0  0  0  0  0  0  0
   12.4593   -1.5398    4.6891 C   0  0  0  0  0  0  0  0  0  0  0  0
   11.7598   -0.8425    3.9684 O   0  0  0  0  0  0  0  0  0  0  0  0
   13.2140   -2.5903    4.2531 O   0  0  0  0  0  0  0  0  0  0  0  0
   13.2161   -2.8627    2.8340 C   0  0  1  0  0  0  0  0  0  0  0  0
   14.1883   -1.9262    2.1134 C   0  0  0  0  0  0  0  0  0  0  0  0
   14.2961   -2.2421    0.6193 C   0  0  0  0  0  0  0  0  0  0  0  0
   14.6094   -3.7246    0.3107 C   0  0  2  0  0  0  0  0  0  0  0  0
   14.5309   -4.0907   -1.1357 N   0  0  0  0  0  0  0  0  0  0  0  0
   13.2090   -3.7682   -1.7061 C   0  0  0  0  0  0  0  0  0  0  0  0
   15.6295   -3.5679   -2.0140 C   0  0  1  0  0  0  0  0  0  0  0  0
   17.0555   -3.8802   -1.4914 C   0  0  0  0  0  0  0  0  0  0  0  0
   18.1664   -3.4853   -2.4789 C   0  0  0  0  0  0  0  0  0  0  0  0
   17.9963   -4.1484   -3.8447 C   0  0  1  0  0  0  0  0  0  0  0  0
   18.0471   -5.5823   -3.7215 O   0  0  0  0  0  0  0  0  0  0  0  0
   19.2704   -6.1649   -3.7320 C   0  0  0  0  0  0  0  0  0  0  0  0
   20.3469   -5.5916   -3.8833 O   0  0  0  0  0  0  0  0  0  0  0  0
   19.1504   -7.6307   -3.5496 C   0  0  0  0  0  0  0  0  0  0  0  0
   18.0198   -8.1722   -2.9460 C   0  0  0  0  0  0  0  0  0  0  0  0
   17.9069   -9.5512   -2.7472 C   0  0  0  0  0  0  0  0  0  0  0  0
   16.7857  -10.0995   -2.1607 O   0  0  0  0  0  0  0  0  0  0  0  0
   15.5935   -9.3183   -2.2764 C   0  0  0  0  0  0  0  0  0  0  0  0
   18.9680  -10.4134   -3.1215 C   0  0  0  0  0  0  0  0  0  0  0  0
   18.7874  -11.7386   -2.7905 O   0  0  0  0  0  0  0  0  0  0  0  0
   19.3749  -12.7284   -3.6310 C   0  0  0  0  0  0  0  0  0  0  0  0
   20.1280   -9.8615   -3.7145 C   0  0  0  0  0  0  0  0  0  0  0  0
   21.1696  -10.7017   -4.0135 O   0  0  0  0  0  0  0  0  0  0  0  0
   22.3459  -10.1453   -4.5937 C   0  0  0  0  0  0  0  0  0  0  0  0
   20.1952   -8.4740   -3.9362 C   0  0  0  0  0  0  0  0  0  0  0  0
   16.6299   -3.7618   -4.4000 C   0  0  0  0  0  0  0  0  0  0  0  0
   15.4889   -4.1406   -3.4547 C   0  0  0  0  0  0  0  0  0  0  0  0
   13.7422   -4.6911    1.1643 C   0  0  0  0  0  0  0  0  0  0  0  0
   13.6874   -4.3057    2.6425 C   0  0  0  0  0  0  0  0  0  0  0  0
   14.0968   -0.3779    8.8642 C   0  0  0  0  0  0  0  0  0  0  0  0
   14.4584   -0.2141   10.2163 C   0  0  0  0  0  0  0  0  0  0  0  0
   14.4744    1.1161   10.5660 O   0  0  0  0  0  0  0  0  0  0  0  0
   14.8410    1.5006   11.8826 C   0  0  0  0  0  0  0  0  0  0  0  0
   14.8039   -1.3362   11.0049 C   0  0  0  0  0  0  0  0  0  0  0  0
   15.1598   -1.0545   12.2926 O   0  0  0  0  0  0  0  0  0  0  0  0
   15.6938   -2.0248   13.1712 C   0  0  0  0  0  0  0  0  0  0  0  0
   16.8146   -4.9778   10.7852 H   0  0  0  0  0  0  0  0  0  0  0  0
   16.2277   -4.2873    9.2840 H   0  0  0  0  0  0  0  0  0  0  0  0
   15.2723   -5.5543   10.1126 H   0  0  0  0  0  0  0  0  0  0  0  0
   14.1886   -3.7378    8.6390 H   0  0  0  0  0  0  0  0  0  0  0  0
   14.0402   -2.8665    6.5316 H   0  0  0  0  0  0  0  0  0  0  0  0
   14.6849   -1.2634    6.2922 H   0  0  0  0  0  0  0  0  0  0  0  0
   12.3772   -0.3020    6.4104 H   0  0  0  0  0  0  0  0  0  0  0  0
   11.7045   -1.9253    6.6495 H   0  0  0  0  0  0  0  0  0  0  0  0
   12.1991   -2.7595    2.4324 H   0  0  0  0  0  0  0  0  0  0  0  0
   15.1771   -1.9876    2.5852 H   0  0  0  0  0  0  0  0  0  0  0  0
   13.8665   -0.8856    2.2397 H   0  0  0  0  0  0  0  0  0  0  0  0
   15.0754   -1.6064    0.1818 H   0  0  0  0  0  0  0  0  0  0  0  0
   13.3485   -1.9411    0.1610 H   0  0  0  0  0  0  0  0  0  0  0  0
   15.6294   -3.9171    0.6622 H   0  0  0  0  0  0  0  0  0  0  0  0
   12.3832   -4.1226   -1.0853 H   0  0  0  0  0  0  0  0  0  0  0  0
   13.0470   -4.2697   -2.6640 H   0  0  0  0  0  0  0  0  0  0  0  0
   13.0794   -2.6916   -1.8611 H   0  0  0  0  0  0  0  0  0  0  0  0
   15.5361   -2.4752   -2.0789 H   0  0  0  0  0  0  0  0  0  0  0  0
   17.1432   -4.9498   -1.2637 H   0  0  0  0  0  0  0  0  0  0  0  0
   17.2474   -3.3348   -0.5611 H   0  0  0  0  0  0  0  0  0  0  0  0
   19.1362   -3.7577   -2.0483 H   0  0  0  0  0  0  0  0  0  0  0  0
   18.1654   -2.3949   -2.6073 H   0  0  0  0  0  0  0  0  0  0  0  0
   18.7684   -3.8084   -4.5454 H   0  0  0  0  0  0  0  0  0  0  0  0
   17.2422   -7.4921   -2.6103 H   0  0  0  0  0  0  0  0  0  0  0  0
   14.7505   -9.9065   -1.9056 H   0  0  0  0  0  0  0  0  0  0  0  0
   15.3958   -9.0653   -3.3248 H   0  0  0  0  0  0  0  0  0  0  0  0
   15.6420   -8.4116   -1.6613 H   0  0  0  0  0  0  0  0  0  0  0  0
   18.9598  -13.6995   -3.3415 H   0  0  0  0  0  0  0  0  0  0  0  0
   20.4534  -12.8077   -3.4800 H   0  0  0  0  0  0  0  0  0  0  0  0
   19.1258  -12.5617   -4.6825 H   0  0  0  0  0  0  0  0  0  0  0  0
   23.0974  -10.9376   -4.6598 H   0  0  0  0  0  0  0  0  0  0  0  0
   22.7685   -9.3502   -3.9703 H   0  0  0  0  0  0  0  0  0  0  0  0
   22.1425   -9.7896   -5.6091 H   0  0  0  0  0  0  0  0  0  0  0  0
   21.0659   -8.0124   -4.3920 H   0  0  0  0  0  0  0  0  0  0  0  0
   16.4629   -4.2587   -5.3630 H   0  0  0  0  0  0  0  0  0  0  0  0
   16.6005   -2.6802   -4.5826 H   0  0  0  0  0  0  0  0  0  0  0  0
   15.4078   -5.2347   -3.4074 H   0  0  0  0  0  0  0  0  0  0  0  0
   14.5729   -3.7716   -3.9281 H   0  0  0  0  0  0  0  0  0  0  0  0
   14.1433   -5.7095    1.0778 H   0  0  0  0  0  0  0  0  0  0  0  0
   12.7096   -4.7376    0.8056 H   0  0  0  0  0  0  0  0  0  0  0  0
   14.6756   -4.4385    3.1014 H   0  0  0  0  0  0  0  0  0  0  0  0
   13.0182   -4.9883    3.1812 H   0  0  0  0  0  0  0  0  0  0  0  0
   13.9041    0.5129    8.2695 H   0  0  0  0  0  0  0  0  0  0  0  0
   14.8679    2.5945   11.9103 H   0  0  0  0  0  0  0  0  0  0  0  0
   15.8485    1.1626   12.1457 H   0  0  0  0  0  0  0  0  0  0  0  0
   14.0902    1.1745   12.6097 H   0  0  0  0  0  0  0  0  0  0  0  0
   15.9442   -1.4982   14.1008 H   0  0  0  0  0  0  0  0  0  0  0  0
   16.6243   -2.4526   12.7886 H   0  0  0  0  0  0  0  0  0  0  0  0
   14.9536   -2.7871   13.4247 H   0  0  0  0  0  0  0  0  0  0  0  0
  1  2  1  0  0  0  0
  1 47  1  0  0  0  0
  1 48  1  0  0  0  0
  1 49  1  0  0  0  0
  2  3  1  0  0  0  0
  3  4  1  0  0  0  0
  3 44  2  0  0  0  0
  4  5  2  0  0  0  0
  4 50  1  0  0  0  0
  5  6  1  0  0  0  0
  5 40  1  0  0  0  0
  6  7  1  0  0  0  0
  6 51  1  0  0  0  0
  6 52  1  0  0  0  0
  7  8  1  0  0  0  0
  7 53  1  0  0  0  0
  7 54  1  0  0  0  0
  8  9  2  0  0  0  0
  8 10  1  0  0  0  0
 11 12  1  0  0  0  0
 11 39  1  0  0  0  0
 11 10  1  0  0  0  0
 11 55  1  6  0  0  0
 12 13  1  0  0  0  0
 12 56  1  0  0  0  0
 12 57  1  0  0  0  0
 13 14  1  0  0  0  0
 13 58  1  0  0  0  0
 13 59  1  0  0  0  0
 14 38  1  0  0  0  0
 14 15  1  0  0  0  0
 14 60  1  1  0  0  0
 15 16  1  0  0  0  0
 16 61  1  0  0  0  0
 16 62  1  0  0  0  0
 16 63  1  0  0  0  0
 17 18  1  0  0  0  0
 17 37  1  0  0  0  0
 17 15  1  0  0  0  0
 17 64  1  6  0  0  0
 18 19  1  0  0  0  0
 18 65  1  0  0  0  0
 18 66  1  0  0  0  0
 19 20  1  0  0  0  0
 19 67  1  0  0  0  0
 19 68  1  0  0  0  0
 20 21  1  0  0  0  0
 20 36  1  0  0  0  0
 20 69  1  6  0  0  0
 21 22  1  0  0  0  0
 22 23  2  0  0  0  0
 22 24  1  0  0  0  0
 24 25  1  0  0  0  0
 24 35  2  0  0  0  0
 25 26  2  0  0  0  0
 25 70  1  0  0  0  0
 26 27  1  0  0  0  0
 26 29  1  0  0  0  0
 27 28  1  0  0  0  0
 28 71  1  0  0  0  0
 28 72  1  0  0  0  0
 28 73  1  0  0  0  0
 29 30  1  0  0  0  0
 29 32  2  0  0  0  0
 30 31  1  0  0  0  0
 31 74  1  0  0  0  0
 31 75  1  0  0  0  0
 31 76  1  0  0  0  0
 32 33  1  0  0  0  0
 32 35  1  0  0  0  0
 33 34  1  0  0  0  0
 34 77  1  0  0  0  0
 34 78  1  0  0  0  0
 34 79  1  0  0  0  0
 35 80  1  0  0  0  0
 36 37  1  0  0  0  0
 36 81  1  0  0  0  0
 36 82  1  0  0  0  0
 37 83  1  0  0  0  0
 37 84  1  0  0  0  0
 38 39  1  0  0  0  0
 38 85  1  0  0  0  0
 38 86  1  0  0  0  0
 39 87  1  0  0  0  0
 39 88  1  0  0  0  0
 40 41  2  0  0  0  0
 40 89  1  0  0  0  0
 41 42  1  0  0  0  0
 41 44  1  0  0  0  0
 42 43  1  0  0  0  0
 43 90  1  0  0  0  0
 43 91  1  0  0  0  0
 43 92  1  0  0  0  0
 44 45  1  0  0  0  0
 45 46  1  0  0  0  0
 46 93  1  0  0  0  0
 46 94  1  0  0  0  0
 46 95  1  0  0  0  0
M  END
>  <Energy>
141.119

$$$$