25
 OpenBabel03292022253D

103108  0  0  1  0  0  0  0  0999 V2000
   -1.5714   -7.7901    8.4689 C   0  0  0  0  0  0  0  0  0  0  0  0
   -1.5830   -6.8936    7.3690 O   0  0  0  0  0  0  0  0  0  0  0  0
   -0.4247   -6.2194    7.0987 C   0  0  0  0  0  0  0  0  0  0  0  0
   -0.4922   -5.4244    5.9558 C   0  0  0  0  0  0  0  0  0  0  0  0
    0.6223   -4.7060    5.5175 C   0  0  0  0  0  0  0  0  0  0  0  0
    0.5428   -3.8327    4.4609 O   0  0  0  0  0  0  0  0  0  0  0  0
   -0.6074   -2.9786    4.5528 C   0  0  0  0  0  0  0  0  0  0  0  0
    1.8519   -4.8584    6.1673 C   0  0  0  0  0  0  0  0  0  0  0  0
    1.8674   -5.5041    7.4068 C   0  0  0  0  0  0  0  0  0  0  0  0
    0.7472   -6.2228    7.8557 C   0  0  0  0  0  0  0  0  0  0  0  0
    2.9445   -5.4079    8.2613 O   0  0  0  0  0  0  0  0  0  0  0  0
    3.8304   -4.2716    7.9688 C   0  0  2  0  0  0  0  0  0  0  0  0
    3.1423   -2.9382    8.3153 C   0  0  0  0  0  0  0  0  0  0  0  0
    2.2502   -2.8565    9.3974 C   0  0  0  0  0  0  0  0  0  0  0  0
    1.5586   -1.6710    9.6854 C   0  0  0  0  0  0  0  0  0  0  0  0
    0.6589   -1.5545   10.7215 O   0  0  0  0  0  0  0  0  0  0  0  0
    0.7665   -2.5144   11.7660 C   0  0  0  0  0  0  0  0  0  0  0  0
    1.7407   -0.5318    8.8727 C   0  0  0  0  0  0  0  0  0  0  0  0
    0.9710    0.5647    9.1959 O   0  0  0  0  0  0  0  0  0  0  0  0
    1.5566    1.8436    8.9751 C   0  0  0  0  0  0  0  0  0  0  0  0
    2.6254   -0.5995    7.7811 C   0  0  0  0  0  0  0  0  0  0  0  0
    2.7123    0.4884    6.9516 O   0  0  0  0  0  0  0  0  0  0  0  0
    3.5265    0.3994    5.7902 C   0  0  0  0  0  0  0  0  0  0  0  0
    3.3447   -1.7808    7.5525 C   0  0  0  0  0  0  0  0  0  0  0  0
    4.3469   -4.4837    6.5155 C   0  0  2  0  0  0  0  0  0  0  0  0
    5.3953   -3.6085    6.0024 O   0  0  0  0  0  0  0  0  0  0  0  0
    6.6498   -3.7487    6.5020 C   0  0  0  0  0  0  0  0  0  0  0  0
    6.9241   -4.3377    7.5291 O   0  0  0  0  0  0  0  0  0  0  0  0
    7.6956   -3.1371    5.5998 C   0  0  0  0  0  0  0  0  0  0  0  0
    9.0387   -3.1898    6.0163 C   0  0  0  0  0  0  0  0  0  0  0  0
   10.0697   -2.7164    5.1928 C   0  0  0  0  0  0  0  0  0  0  0  0
    9.7710   -2.1920    3.9411 C   0  0  0  0  0  0  0  0  0  0  0  0
   10.7700   -1.8018    3.1331 F   0  0  0  0  0  0  0  0  0  0  0  0
    8.4595   -2.1593    3.4834 C   0  0  0  0  0  0  0  0  0  0  0  0
    8.2232   -1.7460    2.1380 N   0  0  0  0  0  0  0  0  0  0  0  0
    7.3786   -2.4938    1.3403 C   0  0  0  0  0  0  0  0  0  0  0  0
    6.8858   -3.5569    1.7380 O   0  0  0  0  0  0  0  0  0  0  0  0
    7.0478   -2.0537   -0.0396 C   0  0  0  0  0  0  0  0  0  0  0  0
    7.6370   -1.0247   -0.7873 C   0  0  0  0  0  0  0  0  0  0  0  0
    7.1526   -0.7251   -2.0760 C   0  0  0  0  0  0  0  0  0  0  0  0
    6.0752   -1.4273   -2.6039 C   0  0  0  0  0  0  0  0  0  0  0  0
    5.5715   -1.0929   -3.8090 F   0  0  0  0  0  0  0  0  0  0  0  0
    5.4494   -2.4044   -1.8458 C   0  0  0  0  0  0  0  0  0  0  0  0
    4.2713   -3.0274   -2.2874 N   0  0  0  0  0  0  0  0  0  0  0  0
    3.2173   -3.2118   -1.4033 C   0  0  0  0  0  0  0  0  0  0  0  0
    3.1711   -2.7255   -0.2726 O   0  0  0  0  0  0  0  0  0  0  0  0
    2.0956   -4.0547   -1.8453 C   0  0  0  0  0  0  0  0  0  0  0  0
    1.3044   -4.6164   -0.8454 C   0  0  0  0  0  0  0  0  0  0  0  0
    0.2640   -5.4795   -1.1684 C   0  0  0  0  0  0  0  0  0  0  0  0
   -0.5431   -6.0543   -0.2110 O   0  0  0  0  0  0  0  0  0  0  0  0
   -0.5768   -5.4001    1.0586 C   0  0  0  0  0  0  0  0  0  0  0  0
    0.0390   -5.8213   -2.5200 C   0  0  0  0  0  0  0  0  0  0  0  0
   -0.9435   -6.7634   -2.7239 O   0  0  0  0  0  0  0  0  0  0  0  0
   -1.7040   -6.6471   -3.9178 C   0  0  0  0  0  0  0  0  0  0  0  0
    0.8407   -5.2510   -3.5368 C   0  0  0  0  0  0  0  0  0  0  0  0
    0.6335   -5.6306   -4.8381 O   0  0  0  0  0  0  0  0  0  0  0  0
    1.4787   -5.0831   -5.8458 C   0  0  0  0  0  0  0  0  0  0  0  0
    1.8453   -4.3443   -3.1854 C   0  0  0  0  0  0  0  0  0  0  0  0
    5.9716   -2.7432   -0.6031 C   0  0  0  0  0  0  0  0  0  0  0  0
    7.4142   -2.6041    4.3289 C   0  0  0  0  0  0  0  0  0  0  0  0
    3.1440   -4.3815    5.5559 C   0  0  0  0  0  0  0  0  0  0  0  0
   -2.5490   -8.2820    8.5055 H   0  0  0  0  0  0  0  0  0  0  0  0
   -1.4354   -7.2474    9.4087 H   0  0  0  0  0  0  0  0  0  0  0  0
   -0.8116   -8.5676    8.3416 H   0  0  0  0  0  0  0  0  0  0  0  0
   -1.4270   -5.3850    5.4044 H   0  0  0  0  0  0  0  0  0  0  0  0
   -0.4354   -2.0985    3.9264 H   0  0  0  0  0  0  0  0  0  0  0  0
   -0.7867   -2.6260    5.5776 H   0  0  0  0  0  0  0  0  0  0  0  0
   -1.4942   -3.4926    4.1673 H   0  0  0  0  0  0  0  0  0  0  0  0
    0.8139   -6.7576    8.7961 H   0  0  0  0  0  0  0  0  0  0  0  0
    4.6671   -4.3622    8.6708 H   0  0  0  0  0  0  0  0  0  0  0  0
    2.0748   -3.7522    9.9846 H   0  0  0  0  0  0  0  0  0  0  0  0
    0.1208   -2.1941   12.5893 H   0  0  0  0  0  0  0  0  0  0  0  0
    1.7912   -2.5702   12.1495 H   0  0  0  0  0  0  0  0  0  0  0  0
    0.4147   -3.4977   11.4364 H   0  0  0  0  0  0  0  0  0  0  0  0
    0.9867    2.5782    9.5523 H   0  0  0  0  0  0  0  0  0  0  0  0
    1.4682    2.1466    7.9277 H   0  0  0  0  0  0  0  0  0  0  0  0
    2.5962    1.8839    9.3192 H   0  0  0  0  0  0  0  0  0  0  0  0
    3.3931    1.3236    5.2205 H   0  0  0  0  0  0  0  0  0  0  0  0
    3.2239   -0.4322    5.1450 H   0  0  0  0  0  0  0  0  0  0  0  0
    4.5831    0.3270    6.0669 H   0  0  0  0  0  0  0  0  0  0  0  0
    4.0482   -1.8159    6.7307 H   0  0  0  0  0  0  0  0  0  0  0  0
    4.7321   -5.5133    6.4547 H   0  0  0  0  0  0  0  0  0  0  0  0
    9.2942   -3.6299    6.9799 H   0  0  0  0  0  0  0  0  0  0  0  0
   11.1067   -2.7908    5.5065 H   0  0  0  0  0  0  0  0  0  0  0  0
    8.9890   -1.2685    1.6680 H   0  0  0  0  0  0  0  0  0  0  0  0
    8.4638   -0.4390   -0.3920 H   0  0  0  0  0  0  0  0  0  0  0  0
    7.5824    0.0806   -2.6593 H   0  0  0  0  0  0  0  0  0  0  0  0
    4.1125   -3.0456   -3.2833 H   0  0  0  0  0  0  0  0  0  0  0  0
    1.5426   -4.3833    0.1897 H   0  0  0  0  0  0  0  0  0  0  0  0
   -1.3399   -5.8853    1.6732 H   0  0  0  0  0  0  0  0  0  0  0  0
   -0.8548   -4.3450    0.9494 H   0  0  0  0  0  0  0  0  0  0  0  0
    0.3767   -5.5003    1.5889 H   0  0  0  0  0  0  0  0  0  0  0  0
   -2.6227   -7.2252   -3.7816 H   0  0  0  0  0  0  0  0  0  0  0  0
   -1.1764   -7.0950   -4.7646 H   0  0  0  0  0  0  0  0  0  0  0  0
   -1.9895   -5.6095   -4.1219 H   0  0  0  0  0  0  0  0  0  0  0  0
    1.1983   -5.5302   -6.8033 H   0  0  0  0  0  0  0  0  0  0  0  0
    2.5312   -5.3285   -5.6630 H   0  0  0  0  0  0  0  0  0  0  0  0
    1.3355   -4.0000   -5.9293 H   0  0  0  0  0  0  0  0  0  0  0  0
    2.4437   -3.8725   -3.9493 H   0  0  0  0  0  0  0  0  0  0  0  0
    5.5014   -3.5529   -0.0442 H   0  0  0  0  0  0  0  0  0  0  0  0
    6.3857   -2.5675    3.9755 H   0  0  0  0  0  0  0  0  0  0  0  0
    3.3620   -5.0071    4.6807 H   0  0  0  0  0  0  0  0  0  0  0  0
    3.0386   -3.3579    5.1842 H   0  0  0  0  0  0  0  0  0  0  0  0
  1  2  1  0  0  0  0
  1 62  1  0  0  0  0
  1 63  1  0  0  0  0
  1 64  1  0  0  0  0
  2  3  1  0  0  0  0
  3  4  1  0  0  0  0
  3 10  2  0  0  0  0
  4  5  2  0  0  0  0
  4 65  1  0  0  0  0
  5  6  1  0  0  0  0
  5  8  1  0  0  0  0
  6  7  1  0  0  0  0
  7 66  1  0  0  0  0
  7 67  1  0  0  0  0
  7 68  1  0  0  0  0
  8  9  2  0  0  0  0
  8 61  1  0  0  0  0
  9 10  1  0  0  0  0
  9 11  1  0  0  0  0
 10 69  1  0  0  0  0
 11 12  1  0  0  0  0
 12 13  1  0  0  0  0
 12 25  1  0  0  0  0
 12 70  1  1  0  0  0
 13 14  1  0  0  0  0
 13 24  2  0  0  0  0
 14 15  2  0  0  0  0
 14 71  1  0  0  0  0
 15 16  1  0  0  0  0
 15 18  1  0  0  0  0
 16 17  1  0  0  0  0
 17 72  1  0  0  0  0
 17 73  1  0  0  0  0
 17 74  1  0  0  0  0
 18 19  1  0  0  0  0
 18 21  2  0  0  0  0
 19 20  1  0  0  0  0
 20 75  1  0  0  0  0
 20 76  1  0  0  0  0
 20 77  1  0  0  0  0
 21 22  1  0  0  0  0
 21 24  1  0  0  0  0
 22 23  1  0  0  0  0
 23 78  1  0  0  0  0
 23 79  1  0  0  0  0
 23 80  1  0  0  0  0
 24 81  1  0  0  0  0
 25 61  1  0  0  0  0
 25 26  1  0  0  0  0
 25 82  1  6  0  0  0
 26 27  1  0  0  0  0
 27 28  2  0  0  0  0
 27 29  1  0  0  0  0
 29 30  1  0  0  0  0
 29 60  2  0  0  0  0
 30 31  2  0  0  0  0
 30 83  1  0  0  0  0
 31 32  1  0  0  0  0
 31 84  1  0  0  0  0
 32 33  1  0  0  0  0
 32 34  2  0  0  0  0
 34 35  1  0  0  0  0
 34 60  1  0  0  0  0
 35 36  1  0  0  0  0
 35 85  1  0  0  0  0
 36 37  2  0  0  0  0
 36 38  1  0  0  0  0
 38 39  1  0  0  0  0
 38 59  2  0  0  0  0
 39 40  2  0  0  0  0
 39 86  1  0  0  0  0
 40 41  1  0  0  0  0
 40 87  1  0  0  0  0
 41 42  1  0  0  0  0
 41 43  2  0  0  0  0
 43 44  1  0  0  0  0
 43 59  1  0  0  0  0
 44 45  1  0  0  0  0
 44 88  1  0  0  0  0
 45 46  2  0  0  0  0
 45 47  1  0  0  0  0
 47 48  1  0  0  0  0
 47 58  2  0  0  0  0
 48 49  2  0  0  0  0
 48 89  1  0  0  0  0
 49 50  1  0  0  0  0
 49 52  1  0  0  0  0
 50 51  1  0  0  0  0
 51 90  1  0  0  0  0
 51 91  1  0  0  0  0
 51 92  1  0  0  0  0
 52 53  1  0  0  0  0
 52 55  2  0  0  0  0
 53 54  1  0  0  0  0
 54 93  1  0  0  0  0
 54 94  1  0  0  0  0
 54 95  1  0  0  0  0
 55 56  1  0  0  0  0
 55 58  1  0  0  0  0
 56 57  1  0  0  0  0
 57 96  1  0  0  0  0
 57 97  1  0  0  0  0
 57 98  1  0  0  0  0
 58 99  1  0  0  0  0
 59100  1  0  0  0  0
 60101  1  0  0  0  0
 61102  1  0  0  0  0
 61103  1  0  0  0  0
M  END
>  <Energy>
245.953

$$$$