25223106
  -OEChem-03242010103D

 81 86  0     1  0  0  0  0  0999 V2000
   10.7812    3.6428   -0.0992 O   0  0  0  0  0  0  0  0  0  0  0  0
   12.7354    1.6953    0.2257 O   0  0  0  0  0  0  0  0  0  0  0  0
   -1.5997   -0.1941    0.7099 O   0  0  0  0  0  0  0  0  0  0  0  0
   -5.6263    1.4200    0.1543 O   0  0  0  0  0  0  0  0  0  0  0  0
    6.9968   -1.1648    0.0197 N   0  0  2  0  0  0  0  0  0  0  0  0
   -0.7779   -2.1561   -0.2917 N   0  0  0  0  0  0  0  0  0  0  0  0
   -6.6233   -0.7050    0.2812 N   0  0  0  0  0  0  0  0  0  0  0  0
   -9.3272    3.2641    0.6596 N   0  0  0  0  0  0  0  0  0  0  0  0
    7.8313   -1.9786    0.9122 C   0  0  0  0  0  0  0  0  0  0  0  0
    7.2433    0.2684    0.2586 C   0  0  0  0  0  0  0  0  0  0  0  0
    9.3098   -1.7915    0.5570 C   0  0  0  0  0  0  0  0  0  0  0  0
    8.7085    0.6380    0.2204 C   0  0  0  0  0  0  0  0  0  0  0  0
    9.6972   -0.3432    0.4084 C   0  0  0  0  0  0  0  0  0  0  0  0
    5.5801   -1.4757    0.2069 C   0  0  0  0  0  0  0  0  0  0  0  0
    4.7592   -1.0441   -1.0087 C   0  0  0  0  0  0  0  0  0  0  0  0
    9.0871    1.9779    0.0615 C   0  0  0  0  0  0  0  0  0  0  0  0
   11.0491    0.0240    0.3978 C   0  0  0  0  0  0  0  0  0  0  0  0
   10.4354    2.3350    0.0622 C   0  0  0  0  0  0  0  0  0  0  0  0
   11.4153    1.3588    0.2280 C   0  0  0  0  0  0  0  0  0  0  0  0
    3.2927   -1.3392   -0.8193 C   0  0  0  0  0  0  0  0  0  0  0  0
    2.7696   -2.5675   -1.2236 C   0  0  0  0  0  0  0  0  0  0  0  0
    2.4591   -0.3833   -0.2386 C   0  0  0  0  0  0  0  0  0  0  0  0
    1.4130   -2.8398   -1.0473 C   0  0  0  0  0  0  0  0  0  0  0  0
    1.1024   -0.6556   -0.0625 C   0  0  0  0  0  0  0  0  0  0  0  0
    0.5793   -1.8839   -0.4668 C   0  0  0  0  0  0  0  0  0  0  0  0
    9.7176    4.5789   -0.2627 C   0  0  0  0  0  0  0  0  0  0  0  0
   13.4051    1.6836   -1.0335 C   0  0  0  0  0  0  0  0  0  0  0  0
   -1.7590   -1.3266    0.2671 C   0  0  0  0  0  0  0  0  0  0  0  0
   -3.1336   -1.8921    0.2908 C   0  0  0  0  0  0  0  0  0  0  0  0
   -5.5284   -1.5729    0.2979 C   0  0  0  0  0  0  0  0  0  0  0  0
   -4.2389   -1.0414    0.2748 C   0  0  0  0  0  0  0  0  0  0  0  0
   -5.7126   -2.9550    0.3372 C   0  0  0  0  0  0  0  0  0  0  0  0
   -3.3176   -3.2742    0.3300 C   0  0  0  0  0  0  0  0  0  0  0  0
   -4.6071   -3.8056    0.3533 C   0  0  0  0  0  0  0  0  0  0  0  0
   -7.0823   -3.5517    0.3634 C   0  0  0  0  0  0  0  0  0  0  0  0
   -6.6122    0.6932    0.2128 C   0  0  0  0  0  0  0  0  0  0  0  0
   -7.9509    1.3388    0.1837 C   0  0  0  0  0  0  0  0  0  0  0  0
  -10.3113    1.3038   -0.3383 C   0  0  0  0  0  0  0  0  0  0  0  0
   -9.0594    0.6743   -0.3210 C   0  0  0  0  0  0  0  0  0  0  0  0
  -10.4012    2.6169    0.1691 C   0  0  0  0  0  0  0  0  0  0  0  0
   -8.1371    2.6214    0.6578 C   0  0  0  0  0  0  0  0  0  0  0  0
  -11.4528    0.6582   -0.8430 C   0  0  0  0  0  0  0  0  0  0  0  0
  -11.6451    3.2416    0.1522 C   0  0  0  0  0  0  0  0  0  0  0  0
  -12.6843    1.3069   -0.8480 C   0  0  0  0  0  0  0  0  0  0  0  0
  -12.7802    2.6001   -0.3494 C   0  0  0  0  0  0  0  0  0  0  0  0
    7.5945   -3.0444    0.8049 H   0  0  0  0  0  0  0  0  0  0  0  0
    7.6543   -1.7106    1.9627 H   0  0  0  0  0  0  0  0  0  0  0  0
    6.8490    0.5767    1.2363 H   0  0  0  0  0  0  0  0  0  0  0  0
    6.7362    0.8577   -0.5131 H   0  0  0  0  0  0  0  0  0  0  0  0
    9.5253   -2.3002   -0.3914 H   0  0  0  0  0  0  0  0  0  0  0  0
    9.9220   -2.2620    1.3356 H   0  0  0  0  0  0  0  0  0  0  0  0
    5.4508   -2.5616    0.3149 H   0  0  0  0  0  0  0  0  0  0  0  0
    5.1879   -1.0331    1.1324 H   0  0  0  0  0  0  0  0  0  0  0  0
    5.1209   -1.5547   -1.9113 H   0  0  0  0  0  0  0  0  0  0  0  0
    4.8681    0.0277   -1.2115 H   0  0  0  0  0  0  0  0  0  0  0  0
    8.2806    2.6944   -0.0562 H   0  0  0  0  0  0  0  0  0  0  0  0
   11.8182   -0.7349    0.5233 H   0  0  0  0  0  0  0  0  0  0  0  0
    3.4096   -3.3208   -1.6754 H   0  0  0  0  0  0  0  0  0  0  0  0
    2.8567    0.5760    0.0822 H   0  0  0  0  0  0  0  0  0  0  0  0
    1.0194   -3.8015   -1.3666 H   0  0  0  0  0  0  0  0  0  0  0  0
    0.5234    0.1345    0.3943 H   0  0  0  0  0  0  0  0  0  0  0  0
   10.1743    5.5673   -0.3797 H   0  0  0  0  0  0  0  0  0  0  0  0
    9.0816    4.6272    0.6278 H   0  0  0  0  0  0  0  0  0  0  0  0
    9.1448    4.3844   -1.1758 H   0  0  0  0  0  0  0  0  0  0  0  0
   14.4448    1.9808   -0.8714 H   0  0  0  0  0  0  0  0  0  0  0  0
   12.9411    2.3954   -1.7235 H   0  0  0  0  0  0  0  0  0  0  0  0
   13.3917    0.6779   -1.4655 H   0  0  0  0  0  0  0  0  0  0  0  0
   -1.0652   -3.0577   -0.6615 H   0  0  0  0  0  0  0  0  0  0  0  0
   -4.0311    0.0174    0.2419 H   0  0  0  0  0  0  0  0  0  0  0  0
   -2.4891   -3.9738    0.3829 H   0  0  0  0  0  0  0  0  0  0  0  0
   -4.7328   -4.8845    0.3928 H   0  0  0  0  0  0  0  0  0  0  0  0
   -7.5274   -1.1588    0.3559 H   0  0  0  0  0  0  0  0  0  0  0  0
   -7.6219   -3.2386    1.2634 H   0  0  0  0  0  0  0  0  0  0  0  0
   -7.6493   -3.2566   -0.5260 H   0  0  0  0  0  0  0  0  0  0  0  0
   -7.0474   -4.6468    0.3727 H   0  0  0  0  0  0  0  0  0  0  0  0
   -8.9783   -0.3247   -0.7425 H   0  0  0  0  0  0  0  0  0  0  0  0
   -7.3181    3.2019    1.0717 H   0  0  0  0  0  0  0  0  0  0  0  0
  -11.3894   -0.3544   -1.2353 H   0  0  0  0  0  0  0  0  0  0  0  0
  -11.7469    4.2547    0.5369 H   0  0  0  0  0  0  0  0  0  0  0  0
  -13.5642    0.8050   -1.2387 H   0  0  0  0  0  0  0  0  0  0  0  0
  -13.7373    3.1137   -0.3491 H   0  0  0  0  0  0  0  0  0  0  0  0
  1 18  1  0  0  0  0
  1 26  1  0  0  0  0
  2 19  1  0  0  0  0
  2 27  1  0  0  0  0
  3 28  2  0  0  0  0
  4 36  2  0  0  0  0
  5  9  1  0  0  0  0
  5 10  1  0  0  0  0
  5 14  1  0  0  0  0
  6 25  1  0  0  0  0
  6 28  1  0  0  0  0
  6 68  1  0  0  0  0
  7 30  1  0  0  0  0
  7 36  1  0  0  0  0
  7 72  1  0  0  0  0
  8 40  1  0  0  0  0
  8 41  2  0  0  0  0
  9 11  1  0  0  0  0
  9 46  1  0  0  0  0
  9 47  1  0  0  0  0
 10 12  1  0  0  0  0
 10 48  1  0  0  0  0
 10 49  1  0  0  0  0
 11 13  1  0  0  0  0
 11 50  1  0  0  0  0
 11 51  1  0  0  0  0
 12 13  1  0  0  0  0
 12 16  2  0  0  0  0
 13 17  2  0  0  0  0
 14 15  1  0  0  0  0
 14 52  1  0  0  0  0
 14 53  1  0  0  0  0
 15 20  1  0  0  0  0
 15 54  1  0  0  0  0
 15 55  1  0  0  0  0
 16 18  1  0  0  0  0
 16 56  1  0  0  0  0
 17 19  1  0  0  0  0
 17 57  1  0  0  0  0
 18 19  2  0  0  0  0
 20 21  2  0  0  0  0
 20 22  1  0  0  0  0
 21 23  1  0  0  0  0
 21 58  1  0  0  0  0
 22 24  2  0  0  0  0
 22 59  1  0  0  0  0
 23 25  2  0  0  0  0
 23 60  1  0  0  0  0
 24 25  1  0  0  0  0
 24 61  1  0  0  0  0
 26 62  1  0  0  0  0
 26 63  1  0  0  0  0
 26 64  1  0  0  0  0
 27 65  1  0  0  0  0
 27 66  1  0  0  0  0
 27 67  1  0  0  0  0
 28 29  1  0  0  0  0
 29 31  2  0  0  0  0
 29 33  1  0  0  0  0
 30 31  1  0  0  0  0
 30 32  2  0  0  0  0
 31 69  1  0  0  0  0
 32 34  1  0  0  0  0
 32 35  1  0  0  0  0
 33 34  2  0  0  0  0
 33 70  1  0  0  0  0
 34 71  1  0  0  0  0
 35 73  1  0  0  0  0
 35 74  1  0  0  0  0
 35 75  1  0  0  0  0
 36 37  1  0  0  0  0
 37 39  2  0  0  0  0
 37 41  1  0  0  0  0
 38 39  1  0  0  0  0
 38 40  1  0  0  0  0
 38 42  2  0  0  0  0
 39 76  1  0  0  0  0
 40 43  2  0  0  0  0
 41 77  1  0  0  0  0
 42 44  1  0  0  0  0
 42 78  1  0  0  0  0
 43 45  1  0  0  0  0
 43 79  1  0  0  0  0
 44 45  2  0  0  0  0
 44 80  1  0  0  0  0
 45 81  1  0  0  0  0
M  END
> <PUBCHEM_COMPOUND_CID>
25223106

> <PUBCHEM_CONFORMER_RMSD>
1.2

> <PUBCHEM_CONFORMER_DIVERSEORDER>
6
39
52
136
68
77
187
127
113
38
172
193
157
138
132
88
126
95
189
152
86
121
82
140
27
30
194
146
134
73
195
148
177
105
186
78
43
51
65
155
17
154
19
9
180
15
119
18
62
64
171
118
153
41
56
71
42
143
10
167
158
47
161
162
109
37
179
4
128
124
81
103
31
94
165
5
63
150
199
33
70
159
69
35
185
110
111
24
101
190
102
54
188
21
174
79
32
114
169
16
142
123
23
14
58
45
184
130
160
99
98
175
97
92
137
60
156
28
85
57
20
89
13
3
72
129
106
166
75
108
122
182
145
163
131
87
59
50
76
115
107
141
93
196
173
168
29
8
55
74
192
44
100
112
170
149
151
181
133
116
48
26
191
120
144
12
49
7
46
22
67
84
117
1
36
135
83
61
139
40
34
11
125
66
183
91
176
104
2
147
90
197
53
80
96
198
25
178
164

> <PUBCHEM_MMFF94_PARTIAL_CHARGES>
61
1 -0.36
10 0.41
11 0.14
12 -0.14
13 -0.14
14 0.27
15 0.14
16 -0.15
17 -0.15
18 0.08
19 0.08
2 -0.36
20 -0.14
21 -0.15
22 -0.15
23 -0.15
24 -0.15
25 0.12
26 0.28
27 0.28
28 0.54
29 0.09
3 -0.57
30 0.12
31 -0.15
32 -0.14
33 -0.15
34 -0.15
35 0.14
36 0.54
37 0.09
39 -0.15
4 -0.57
40 0.31
41 0.16
42 -0.15
43 -0.15
44 -0.15
45 -0.15
5 -0.81
56 0.15
57 0.15
58 0.15
59 0.15
6 -0.55
60 0.15
61 0.15
68 0.37
69 0.15
7 -0.55
70 0.15
71 0.15
72 0.37
76 0.15
77 0.15
78 0.15
79 0.15
8 -0.62
80 0.15
81 0.15
9 0.27

> <PUBCHEM_EFFECTIVE_ROTOR_COUNT>
11.8

> <PUBCHEM_PHARMACOPHORE_FEATURES>
14
1 1 acceptor
1 2 acceptor
1 3 acceptor
1 4 acceptor
1 5 cation
1 6 donor
1 7 donor
1 8 acceptor
6 12 13 16 17 18 19 rings
6 20 21 22 23 24 25 rings
6 29 30 31 32 33 34 rings
6 38 40 42 43 44 45 rings
6 5 9 10 11 12 13 rings
6 8 37 38 39 40 41 rings

> <PUBCHEM_HEAVY_ATOM_COUNT>
45

> <PUBCHEM_ATOM_DEF_STEREO_COUNT>
0

> <PUBCHEM_ATOM_UDEF_STEREO_COUNT>
0

> <PUBCHEM_BOND_DEF_STEREO_COUNT>
0

> <PUBCHEM_BOND_UDEF_STEREO_COUNT>
0

> <PUBCHEM_ISOTOPIC_ATOM_COUNT>
0

> <PUBCHEM_COMPONENT_COUNT>
1

> <PUBCHEM_CACTVS_TAUTO_COUNT>
4

> <PUBCHEM_CONFORMER_ID>
0180DFC200000006

> <PUBCHEM_MMFF94_ENERGY>
164.7956

> <PUBCHEM_FEATURE_SELFOVERLAP>
71.108

> <PUBCHEM_SHAPE_FINGERPRINT>
10168742 298 11527940184143742345
10533779 47 14345792747794754824
11061554 47 18335700495334577821
11410812 94 18201714069136599319
11578821 258 18341051908484184744
12013929 2 18342178830941578754
13553643 46 18341620308191799697
14201967 126 18340205297916618896
15061470 23 18409165510819632170
15247644 1 9727341443181452909
15890870 6 18273213084194390202
20105231 36 8646765599587927559
21362267 313 18409444757959173514
22082593 10 18335984250305458205
2851757 41 8862939472649576991
306946 40 17989201534295468770
44280117 145 18270397317464910767
44389302 135 12396303647387277617
54728670 133 15430305895061349351

> <PUBCHEM_SHAPE_MULTIPOLES>
882.68
65.13
4.93
0.87
29.46
1.25
-0.12
74.83
-1.74
-2.91
0.13
0.23
-0.17
-0.16

> <PUBCHEM_SHAPE_SELFOVERLAP>
1937.242

> <PUBCHEM_SHAPE_VOLUME>
475

> <PUBCHEM_COORDINATE_TYPE>
2
5
10

$$$$