6708757
  -OEChem-03242010103D

 75 78  0     1  0  0  0  0  0999 V2000
    1.6658   -1.6808   -0.8146 O   0  0  0  0  0  0  0  0  0  0  0  0
    0.4615    0.2121    0.9913 O   0  0  0  0  0  0  0  0  0  0  0  0
    5.1757    0.3159    1.8626 O   0  0  0  0  0  0  0  0  0  0  0  0
    5.7964   -0.4722   -2.7887 O   0  0  0  0  0  0  0  0  0  0  0  0
   -3.1097   -1.5279   -2.2310 O   0  0  0  0  0  0  0  0  0  0  0  0
   -2.9637   -4.8526    1.2137 O   0  0  0  0  0  0  0  0  0  0  0  0
   -4.3486   -3.5510   -0.8018 O   0  0  0  0  0  0  0  0  0  0  0  0
   -1.0599    0.1663    2.7181 O   0  0  0  0  0  0  0  0  0  0  0  0
   -4.2347    3.1944   -0.3239 O   0  0  0  0  0  0  0  0  0  0  0  0
    0.0204    5.3026    0.2972 O   0  0  0  0  0  0  0  0  0  0  0  0
   -2.6049    5.4191   -0.5778 O   0  0  0  0  0  0  0  0  0  0  0  0
    1.0604   -0.9919    1.4724 C   0  0  1  0  0  0  0  0  0  0  0  0
    0.9961   -2.0799    0.3923 C   0  0  1  0  0  0  0  0  0  0  0  0
    2.5195   -0.7184    1.8312 C   0  0  0  0  0  0  0  0  0  0  0  0
    3.3797   -0.6654    0.5974 C   0  0  0  0  0  0  0  0  0  0  0  0
   -0.4339   -2.4739    0.0726 C   0  0  0  0  0  0  0  0  0  0  0  0
    2.9162   -1.1487   -0.6327 C   0  0  0  0  0  0  0  0  0  0  0  0
    4.6773   -0.1421    0.6782 C   0  0  0  0  0  0  0  0  0  0  0  0
    3.7232   -1.0713   -1.7709 C   0  0  0  0  0  0  0  0  0  0  0  0
   -1.0545   -3.4932    0.7945 C   0  0  0  0  0  0  0  0  0  0  0  0
   -1.1281   -1.8163   -0.9429 C   0  0  0  0  0  0  0  0  0  0  0  0
    5.4870   -0.0785   -0.4564 C   0  0  0  0  0  0  0  0  0  0  0  0
    5.0084   -0.5391   -1.6810 C   0  0  0  0  0  0  0  0  0  0  0  0
   -2.4428   -2.1782   -1.2367 C   0  0  0  0  0  0  0  0  0  0  0  0
   -2.3692   -3.8552    0.5008 C   0  0  0  0  0  0  0  0  0  0  0  0
   -0.5907    0.6775    1.7133 C   0  0  0  0  0  0  0  0  0  0  0  0
   -3.0633   -3.1976   -0.5148 C   0  0  0  0  0  0  0  0  0  0  0  0
   -1.1214    1.9268    1.1113 C   0  0  0  0  0  0  0  0  0  0  0  0
    5.8631   -0.6263    2.6820 C   0  0  0  0  0  0  0  0  0  0  0  0
   -0.2972    3.0449    0.9841 C   0  0  0  0  0  0  0  0  0  0  0  0
   -2.4437    1.9815    0.6707 C   0  0  0  0  0  0  0  0  0  0  0  0
    7.1002    0.0838   -2.6255 C   0  0  0  0  0  0  0  0  0  0  0  0
   -2.9416    3.1542    0.1027 C   0  0  0  0  0  0  0  0  0  0  0  0
   -0.7951    4.2176    0.4163 C   0  0  0  0  0  0  0  0  0  0  0  0
   -2.4028   -0.4984   -2.9197 C   0  0  0  0  0  0  0  0  0  0  0  0
   -2.8238   -6.1800    0.7115 C   0  0  0  0  0  0  0  0  0  0  0  0
   -2.1173    4.2722   -0.0245 C   0  0  0  0  0  0  0  0  0  0  0  0
   -5.3807   -2.8652   -0.0968 C   0  0  0  0  0  0  0  0  0  0  0  0
   -5.0094    2.0085   -0.1570 C   0  0  0  0  0  0  0  0  0  0  0  0
    1.3578    5.1633    0.7724 C   0  0  0  0  0  0  0  0  0  0  0  0
   -2.4715    5.5635   -1.9899 C   0  0  0  0  0  0  0  0  0  0  0  0
    0.5626   -1.3576    2.3791 H   0  0  0  0  0  0  0  0  0  0  0  0
    1.5117   -2.9836    0.7496 H   0  0  0  0  0  0  0  0  0  0  0  0
    2.5895    0.2287    2.3791 H   0  0  0  0  0  0  0  0  0  0  0  0
    2.8897   -1.5267    2.4726 H   0  0  0  0  0  0  0  0  0  0  0  0
    3.3529   -1.4324   -2.7274 H   0  0  0  0  0  0  0  0  0  0  0  0
   -0.5190   -4.0067    1.5894 H   0  0  0  0  0  0  0  0  0  0  0  0
   -0.6096   -1.0213   -1.4666 H   0  0  0  0  0  0  0  0  0  0  0  0
    6.4783    0.3421   -0.3227 H   0  0  0  0  0  0  0  0  0  0  0  0
    5.2396   -1.5003    2.8920 H   0  0  0  0  0  0  0  0  0  0  0  0
    6.7930   -0.9405    2.1976 H   0  0  0  0  0  0  0  0  0  0  0  0
    6.1110   -0.1393    3.6291 H   0  0  0  0  0  0  0  0  0  0  0  0
    0.7201    2.9441    1.3479 H   0  0  0  0  0  0  0  0  0  0  0  0
   -3.0336    1.0789    0.7928 H   0  0  0  0  0  0  0  0  0  0  0  0
    7.5862    0.0608   -3.6065 H   0  0  0  0  0  0  0  0  0  0  0  0
    7.7145   -0.5218   -1.9506 H   0  0  0  0  0  0  0  0  0  0  0  0
    7.0545    1.1336   -2.3165 H   0  0  0  0  0  0  0  0  0  0  0  0
   -2.1428    0.3299   -2.2518 H   0  0  0  0  0  0  0  0  0  0  0  0
   -1.5328   -0.8933   -3.4553 H   0  0  0  0  0  0  0  0  0  0  0  0
   -3.0828   -0.0924   -3.6758 H   0  0  0  0  0  0  0  0  0  0  0  0
   -3.3572   -6.8583    1.3830 H   0  0  0  0  0  0  0  0  0  0  0  0
   -3.2610   -6.2620   -0.2886 H   0  0  0  0  0  0  0  0  0  0  0  0
   -1.7688   -6.4708    0.6857 H   0  0  0  0  0  0  0  0  0  0  0  0
   -5.2961   -3.0441    0.9797 H   0  0  0  0  0  0  0  0  0  0  0  0
   -5.3405   -1.7908   -0.3028 H   0  0  0  0  0  0  0  0  0  0  0  0
   -6.3446   -3.2507   -0.4402 H   0  0  0  0  0  0  0  0  0  0  0  0
   -6.0097    2.2194   -0.5496 H   0  0  0  0  0  0  0  0  0  0  0  0
   -5.1313    1.7508    0.9005 H   0  0  0  0  0  0  0  0  0  0  0  0
   -4.6069    1.1767   -0.7457 H   0  0  0  0  0  0  0  0  0  0  0  0
    1.8625    6.1193    0.5979 H   0  0  0  0  0  0  0  0  0  0  0  0
    1.9106    4.4052    0.2070 H   0  0  0  0  0  0  0  0  0  0  0  0
    1.3860    4.9823    1.8523 H   0  0  0  0  0  0  0  0  0  0  0  0
   -1.4161    5.5565   -2.2800 H   0  0  0  0  0  0  0  0  0  0  0  0
   -3.0093    4.7655   -2.5115 H   0  0  0  0  0  0  0  0  0  0  0  0
   -2.9066    6.5242   -2.2785 H   0  0  0  0  0  0  0  0  0  0  0  0
  1 13  1  0  0  0  0
  1 17  1  0  0  0  0
  2 12  1  0  0  0  0
  2 26  1  0  0  0  0
  3 18  1  0  0  0  0
  3 29  1  0  0  0  0
  4 23  1  0  0  0  0
  4 32  1  0  0  0  0
  5 24  1  0  0  0  0
  5 35  1  0  0  0  0
  6 25  1  0  0  0  0
  6 36  1  0  0  0  0
  7 27  1  0  0  0  0
  7 38  1  0  0  0  0
  8 26  2  0  0  0  0
  9 33  1  0  0  0  0
  9 39  1  0  0  0  0
 10 34  1  0  0  0  0
 10 40  1  0  0  0  0
 11 37  1  0  0  0  0
 11 41  1  0  0  0  0
 12 13  1  0  0  0  0
 12 14  1  0  0  0  0
 12 42  1  0  0  0  0
 13 16  1  0  0  0  0
 13 43  1  0  0  0  0
 14 15  1  0  0  0  0
 14 44  1  0  0  0  0
 14 45  1  0  0  0  0
 15 17  2  0  0  0  0
 15 18  1  0  0  0  0
 16 20  2  0  0  0  0
 16 21  1  0  0  0  0
 17 19  1  0  0  0  0
 18 22  2  0  0  0  0
 19 23  2  0  0  0  0
 19 46  1  0  0  0  0
 20 25  1  0  0  0  0
 20 47  1  0  0  0  0
 21 24  2  0  0  0  0
 21 48  1  0  0  0  0
 22 23  1  0  0  0  0
 22 49  1  0  0  0  0
 24 27  1  0  0  0  0
 25 27  2  0  0  0  0
 26 28  1  0  0  0  0
 28 30  2  0  0  0  0
 28 31  1  0  0  0  0
 29 50  1  0  0  0  0
 29 51  1  0  0  0  0
 29 52  1  0  0  0  0
 30 34  1  0  0  0  0
 30 53  1  0  0  0  0
 31 33  2  0  0  0  0
 31 54  1  0  0  0  0
 32 55  1  0  0  0  0
 32 56  1  0  0  0  0
 32 57  1  0  0  0  0
 33 37  1  0  0  0  0
 34 37  2  0  0  0  0
 35 58  1  0  0  0  0
 35 59  1  0  0  0  0
 35 60  1  0  0  0  0
 36 61  1  0  0  0  0
 36 62  1  0  0  0  0
 36 63  1  0  0  0  0
 38 64  1  0  0  0  0
 38 65  1  0  0  0  0
 38 66  1  0  0  0  0
 39 67  1  0  0  0  0
 39 68  1  0  0  0  0
 39 69  1  0  0  0  0
 40 70  1  0  0  0  0
 40 71  1  0  0  0  0
 40 72  1  0  0  0  0
 41 73  1  0  0  0  0
 41 74  1  0  0  0  0
 41 75  1  0  0  0  0
M  END
> <PUBCHEM_COMPOUND_CID>
6708757

> <PUBCHEM_CONFORMER_RMSD>
1.2

> <PUBCHEM_CONFORMER_DIVERSEORDER>
2
4
3
1

> <PUBCHEM_MMFF94_PARTIAL_CHARGES>
47
1 -0.36
10 -0.36
11 -0.36
12 0.28
13 0.42
14 0.14
15 -0.14
16 -0.14
17 0.08
18 0.08
19 -0.15
2 -0.43
20 -0.15
21 -0.15
22 -0.15
23 0.08
24 0.08
25 0.08
26 0.63
27 0.08
28 0.09
29 0.28
3 -0.36
30 -0.15
31 -0.15
32 0.28
33 0.08
34 0.08
35 0.28
36 0.28
37 0.08
38 0.28
39 0.28
4 -0.36
40 0.28
41 0.28
46 0.15
47 0.15
48 0.15
49 0.15
5 -0.36
53 0.15
54 0.15
6 -0.36
7 -0.36
8 -0.57
9 -0.36

> <PUBCHEM_EFFECTIVE_ROTOR_COUNT>
12.8

> <PUBCHEM_PHARMACOPHORE_FEATURES>
14
1 1 acceptor
1 10 acceptor
1 11 acceptor
1 3 acceptor
1 4 acceptor
1 5 acceptor
1 6 acceptor
1 7 acceptor
1 8 acceptor
1 9 acceptor
6 1 12 13 14 15 17 rings
6 15 17 18 19 22 23 rings
6 16 20 21 24 25 27 rings
6 28 30 31 33 34 37 rings

> <PUBCHEM_HEAVY_ATOM_COUNT>
41

> <PUBCHEM_ATOM_DEF_STEREO_COUNT>
2

> <PUBCHEM_ATOM_UDEF_STEREO_COUNT>
0

> <PUBCHEM_BOND_DEF_STEREO_COUNT>
0

> <PUBCHEM_BOND_UDEF_STEREO_COUNT>
0

> <PUBCHEM_ISOTOPIC_ATOM_COUNT>
0

> <PUBCHEM_COMPONENT_COUNT>
1

> <PUBCHEM_CACTVS_TAUTO_COUNT>
1

> <PUBCHEM_CONFORMER_ID>
00665E1500000002

> <PUBCHEM_MMFF94_ENERGY>
201.1182

> <PUBCHEM_FEATURE_SELFOVERLAP>
71.109

> <PUBCHEM_SHAPE_FINGERPRINT>
10974685 15 18270677559679725786
11093857 51 17470186764709530444
11477941 20 18125749957160214220
11488393 25 17617089656563038195
11763715 3 17975446760223623006
12156800 1 17413073973102269445
12160290 23 18059570235397145570
12788726 201 18333736840006852810
14294032 229 18267318555049985216
15198563 99 18339656623326389309
15463212 79 18052240817919107193
15484559 13 17624403182641007596
19319366 153 17907557157142142687
21133410 221 17483629655779752104
21304303 282 18121755288854212730
21772528 278 18054527814879435837
21792965 270 17975976785273867851
24771750 20 16535118636695777452
24893989 43 16547133773727207597
4066623 53 18193538185784929245
437795 70 17845070970858958815
463206 1 18413103974308683765
469060 322 18341338867849108131
5080951 261 17846217701283891750
5081480 168 18125710442943865967

> <PUBCHEM_SHAPE_MULTIPOLES>
779.2
11.56
8.8
2.44
17.83
6.21
-0.8
-3.49
-4.77
-15.32
0.36
2.97
-0.17
0.86

> <PUBCHEM_SHAPE_SELFOVERLAP>
1676.294

> <PUBCHEM_SHAPE_VOLUME>
430.6

> <PUBCHEM_COORDINATE_TYPE>
2
5
10

$$$$