122179373
  -OEChem-03242010103D

 78 81  0     1  0  0  0  0  0999 V2000
   -0.9340   -1.8216   -0.5638 O   0  0  0  0  0  0  0  0  0  0  0  0
   -0.5326    0.5221    1.0614 O   0  0  0  0  0  0  0  0  0  0  0  0
    2.8234   -2.6369    2.3840 O   0  0  0  0  0  0  0  0  0  0  0  0
    2.9300   -4.0439   -2.1600 O   0  0  0  0  0  0  0  0  0  0  0  0
   -6.5417   -0.6315    1.0920 O   0  0  0  0  0  0  0  0  0  0  0  0
   -4.1244    1.5129   -2.4430 O   0  0  0  0  0  0  0  0  0  0  0  0
   -6.4993    1.0802   -1.0854 O   0  0  0  0  0  0  0  0  0  0  0  0
   -0.6533    1.5322    3.1317 O   0  0  0  0  0  0  0  0  0  0  0  0
    4.9660    2.9003    1.1648 O   0  0  0  0  0  0  0  0  0  0  0  0
    2.6507    1.3776   -2.7415 O   0  0  0  0  0  0  0  0  0  0  0  0
    5.0262    1.9296   -1.4288 O   0  0  0  0  0  0  0  0  0  0  0  0
   -0.9853   -0.7062    1.6327 C   0  0  1  0  0  0  0  0  0  0  0  0
   -1.7473   -1.5256    0.5830 C   0  0  1  0  0  0  0  0  0  0  0  0
    0.2200   -1.5055    2.1239 C   0  0  0  0  0  0  0  0  0  0  0  0
    0.9242   -2.1818    0.9787 C   0  0  0  0  0  0  0  0  0  0  0  0
   -3.0190   -0.8283    0.1368 C   0  0  0  0  0  0  0  0  0  0  0  0
    0.3154   -2.3075   -0.2764 C   0  0  0  0  0  0  0  0  0  0  0  0
    2.2057   -2.7161    1.1704 C   0  0  0  0  0  0  0  0  0  0  0  0
    0.9944   -2.9211   -1.3321 C   0  0  0  0  0  0  0  0  0  0  0  0
   -2.9940    0.0330   -0.9602 C   0  0  0  0  0  0  0  0  0  0  0  0
   -4.2128   -1.0481    0.8236 C   0  0  0  0  0  0  0  0  0  0  0  0
    2.8768   -3.3410    0.1188 C   0  0  0  0  0  0  0  0  0  0  0  0
    2.2730   -3.4396   -1.1327 C   0  0  0  0  0  0  0  0  0  0  0  0
   -0.4105    1.5689    1.9331 C   0  0  0  0  0  0  0  0  0  0  0  0
   -5.3818   -0.4068    0.4136 C   0  0  0  0  0  0  0  0  0  0  0  0
   -4.1628    0.6742   -1.3704 C   0  0  0  0  0  0  0  0  0  0  0  0
   -5.3567    0.4543   -0.6836 C   0  0  0  0  0  0  0  0  0  0  0  0
    0.0731    2.7818    1.1744 C   0  0  0  0  0  0  0  0  0  0  0  0
    1.3919    2.5547    0.4816 C   0  0  0  0  0  0  0  0  0  0  0  0
    3.6300   -1.4864    2.6246 C   0  0  0  0  0  0  0  0  0  0  0  0
    1.4184    2.0660   -0.8246 C   0  0  0  0  0  0  0  0  0  0  0  0
    2.5861    2.8331    1.1463 C   0  0  0  0  0  0  0  0  0  0  0  0
    4.2350   -4.5522   -1.8864 C   0  0  0  0  0  0  0  0  0  0  0  0
   -6.4804   -1.5255    2.2016 C   0  0  0  0  0  0  0  0  0  0  0  0
   -2.8637    1.6820   -3.0885 C   0  0  0  0  0  0  0  0  0  0  0  0
    3.8068    2.6226    0.5050 C   0  0  0  0  0  0  0  0  0  0  0  0
    2.6390    1.8556   -1.4660 C   0  0  0  0  0  0  0  0  0  0  0  0
    3.8332    2.1341   -0.8012 C   0  0  0  0  0  0  0  0  0  0  0  0
   -6.7783    2.3523   -0.5048 C   0  0  0  0  0  0  0  0  0  0  0  0
    4.8503    3.3962    2.4970 C   0  0  0  0  0  0  0  0  0  0  0  0
    1.3860    1.1192   -3.3483 C   0  0  0  0  0  0  0  0  0  0  0  0
    5.6225    0.6428   -1.2809 C   0  0  0  0  0  0  0  0  0  0  0  0
   -1.6557   -0.5051    2.4788 H   0  0  0  0  0  0  0  0  0  0  0  0
   -2.0392   -2.4946    1.0144 H   0  0  0  0  0  0  0  0  0  0  0  0
   -0.1193   -2.2855    2.8166 H   0  0  0  0  0  0  0  0  0  0  0  0
    0.9039   -0.8417    2.6609 H   0  0  0  0  0  0  0  0  0  0  0  0
    0.5247   -3.0006   -2.3096 H   0  0  0  0  0  0  0  0  0  0  0  0
   -2.0402    0.1836   -1.4531 H   0  0  0  0  0  0  0  0  0  0  0  0
   -4.1703   -1.7253    1.6701 H   0  0  0  0  0  0  0  0  0  0  0  0
    3.8661   -3.7299    0.3368 H   0  0  0  0  0  0  0  0  0  0  0  0
    0.1608    3.6168    1.8805 H   0  0  0  0  0  0  0  0  0  0  0  0
   -0.7029    3.0780    0.4580 H   0  0  0  0  0  0  0  0  0  0  0  0
    3.7779   -1.3895    3.7035 H   0  0  0  0  0  0  0  0  0  0  0  0
    3.1616   -0.5705    2.2501 H   0  0  0  0  0  0  0  0  0  0  0  0
    4.6063   -1.6175    2.1476 H   0  0  0  0  0  0  0  0  0  0  0  0
    0.4588    1.8684   -1.2907 H   0  0  0  0  0  0  0  0  0  0  0  0
    2.5025    3.2079    2.1609 H   0  0  0  0  0  0  0  0  0  0  0  0
    4.6097   -4.9963   -2.8145 H   0  0  0  0  0  0  0  0  0  0  0  0
    4.2069   -5.3517   -1.1384 H   0  0  0  0  0  0  0  0  0  0  0  0
    4.9298   -3.7508   -1.6128 H   0  0  0  0  0  0  0  0  0  0  0  0
   -7.4897   -1.5862    2.6219 H   0  0  0  0  0  0  0  0  0  0  0  0
   -5.8295   -1.1413    2.9944 H   0  0  0  0  0  0  0  0  0  0  0  0
   -6.2057   -2.5389    1.8893 H   0  0  0  0  0  0  0  0  0  0  0  0
   -3.0190    2.3774   -3.9201 H   0  0  0  0  0  0  0  0  0  0  0  0
   -2.5022    0.7440   -3.5236 H   0  0  0  0  0  0  0  0  0  0  0  0
   -2.1276    2.1451   -2.4223 H   0  0  0  0  0  0  0  0  0  0  0  0
   -6.8908    2.2643    0.5804 H   0  0  0  0  0  0  0  0  0  0  0  0
   -5.9843    3.0672   -0.7430 H   0  0  0  0  0  0  0  0  0  0  0  0
   -7.7180    2.7216   -0.9245 H   0  0  0  0  0  0  0  0  0  0  0  0
    4.3411    4.3656    2.5246 H   0  0  0  0  0  0  0  0  0  0  0  0
    4.3858    2.6605    3.1626 H   0  0  0  0  0  0  0  0  0  0  0  0
    5.8672    3.5616    2.8681 H   0  0  0  0  0  0  0  0  0  0  0  0
    0.8369    0.3325   -2.8192 H   0  0  0  0  0  0  0  0  0  0  0  0
    0.7967    2.0357   -3.4608 H   0  0  0  0  0  0  0  0  0  0  0  0
    1.5839    0.7432   -4.3575 H   0  0  0  0  0  0  0  0  0  0  0  0
    6.5635    0.6349   -1.8376 H   0  0  0  0  0  0  0  0  0  0  0  0
    4.9683   -0.1346   -1.6885 H   0  0  0  0  0  0  0  0  0  0  0  0
    5.8373    0.4364   -0.2275 H   0  0  0  0  0  0  0  0  0  0  0  0
  1 13  1  0  0  0  0
  1 17  1  0  0  0  0
  2 12  1  0  0  0  0
  2 24  1  0  0  0  0
  3 18  1  0  0  0  0
  3 30  1  0  0  0  0
  4 23  1  0  0  0  0
  4 33  1  0  0  0  0
  5 25  1  0  0  0  0
  5 34  1  0  0  0  0
  6 26  1  0  0  0  0
  6 35  1  0  0  0  0
  7 27  1  0  0  0  0
  7 39  1  0  0  0  0
  8 24  2  0  0  0  0
  9 36  1  0  0  0  0
  9 40  1  0  0  0  0
 10 37  1  0  0  0  0
 10 41  1  0  0  0  0
 11 38  1  0  0  0  0
 11 42  1  0  0  0  0
 12 13  1  0  0  0  0
 12 14  1  0  0  0  0
 12 43  1  0  0  0  0
 13 16  1  0  0  0  0
 13 44  1  0  0  0  0
 14 15  1  0  0  0  0
 14 45  1  0  0  0  0
 14 46  1  0  0  0  0
 15 17  2  0  0  0  0
 15 18  1  0  0  0  0
 16 20  2  0  0  0  0
 16 21  1  0  0  0  0
 17 19  1  0  0  0  0
 18 22  2  0  0  0  0
 19 23  2  0  0  0  0
 19 47  1  0  0  0  0
 20 26  1  0  0  0  0
 20 48  1  0  0  0  0
 21 25  2  0  0  0  0
 21 49  1  0  0  0  0
 22 23  1  0  0  0  0
 22 50  1  0  0  0  0
 24 28  1  0  0  0  0
 25 27  1  0  0  0  0
 26 27  2  0  0  0  0
 28 29  1  0  0  0  0
 28 51  1  0  0  0  0
 28 52  1  0  0  0  0
 29 31  2  0  0  0  0
 29 32  1  0  0  0  0
 30 53  1  0  0  0  0
 30 54  1  0  0  0  0
 30 55  1  0  0  0  0
 31 37  1  0  0  0  0
 31 56  1  0  0  0  0
 32 36  2  0  0  0  0
 32 57  1  0  0  0  0
 33 58  1  0  0  0  0
 33 59  1  0  0  0  0
 33 60  1  0  0  0  0
 34 61  1  0  0  0  0
 34 62  1  0  0  0  0
 34 63  1  0  0  0  0
 35 64  1  0  0  0  0
 35 65  1  0  0  0  0
 35 66  1  0  0  0  0
 36 38  1  0  0  0  0
 37 38  2  0  0  0  0
 39 67  1  0  0  0  0
 39 68  1  0  0  0  0
 39 69  1  0  0  0  0
 40 70  1  0  0  0  0
 40 71  1  0  0  0  0
 40 72  1  0  0  0  0
 41 73  1  0  0  0  0
 41 74  1  0  0  0  0
 41 75  1  0  0  0  0
 42 76  1  0  0  0  0
 42 77  1  0  0  0  0
 42 78  1  0  0  0  0
M  END
> <PUBCHEM_COMPOUND_CID>
122179373

> <PUBCHEM_CONFORMER_RMSD>
1.2

> <PUBCHEM_CONFORMER_DIVERSEORDER>
1
43
27
16
45
21
42
14
50
44
53
32
11
36
51
47
33
8
46
13
24
28
48
18
22
25
38
5
23
52
2
30
41
19
31
49
4
39
37
20
7
10
35
15
26
6
3
17
40
34
9
29
12

> <PUBCHEM_MMFF94_PARTIAL_CHARGES>
48
1 -0.36
10 -0.36
11 -0.36
12 0.28
13 0.42
14 0.14
15 -0.14
16 -0.14
17 0.08
18 0.08
19 -0.15
2 -0.43
20 -0.15
21 -0.15
22 -0.15
23 0.08
24 0.66
25 0.08
26 0.08
27 0.08
28 0.2
29 -0.14
3 -0.36
30 0.28
31 -0.15
32 -0.15
33 0.28
34 0.28
35 0.28
36 0.08
37 0.08
38 0.08
39 0.28
4 -0.36
40 0.28
41 0.28
42 0.28
47 0.15
48 0.15
49 0.15
5 -0.36
50 0.15
56 0.15
57 0.15
6 -0.36
7 -0.36
8 -0.57
9 -0.36

> <PUBCHEM_EFFECTIVE_ROTOR_COUNT>
13.8

> <PUBCHEM_PHARMACOPHORE_FEATURES>
14
1 1 acceptor
1 10 acceptor
1 11 acceptor
1 3 acceptor
1 4 acceptor
1 5 acceptor
1 6 acceptor
1 7 acceptor
1 8 acceptor
1 9 acceptor
6 1 12 13 14 15 17 rings
6 15 17 18 19 22 23 rings
6 16 20 21 25 26 27 rings
6 29 31 32 36 37 38 rings

> <PUBCHEM_HEAVY_ATOM_COUNT>
42

> <PUBCHEM_ATOM_DEF_STEREO_COUNT>
2

> <PUBCHEM_ATOM_UDEF_STEREO_COUNT>
0

> <PUBCHEM_BOND_DEF_STEREO_COUNT>
0

> <PUBCHEM_BOND_UDEF_STEREO_COUNT>
0

> <PUBCHEM_ISOTOPIC_ATOM_COUNT>
0

> <PUBCHEM_COMPONENT_COUNT>
1

> <PUBCHEM_CACTVS_TAUTO_COUNT>
3

> <PUBCHEM_CONFORMER_ID>
07484F2D00000001

> <PUBCHEM_MMFF94_ENERGY>
193.2877

> <PUBCHEM_FEATURE_SELFOVERLAP>
71.109

> <PUBCHEM_SHAPE_FINGERPRINT>
10369192 42 18189616231914299837
11578080 2 17241064148716860955
11763715 3 16844715422672548651
12156800 1 15911920492632578372
12422481 6 17607205927919919672
133893 2 18042990708399395176
13642711 20 18059016210316686548
140371 6 18198626523566755355
15082195 135 18201439108289997643
15297060 5 17845646084144405898
161222 10 16342549882212295271
20511986 3 15123519124631911881
21033648 29 18124316262363668364
23559900 14 17822577101933069647
3298306 158 18263362645504471344
3411729 13 18261386767427770353
35225 105 17183377408552412302
44802255 64 17607546905668688364
46194498 28 18267000809854843847
5081480 168 18118112585736187565
5265222 85 17901123119997267868
6669772 16 18059007423409755944

> <PUBCHEM_SHAPE_MULTIPOLES>
799.78
13.28
5.25
3.19
18.94
3.02
-0.5
-4.59
-0.6
-8.62
-0.49
-1.28
-0.58
3.31

> <PUBCHEM_SHAPE_SELFOVERLAP>
1715.01

> <PUBCHEM_SHAPE_VOLUME>
446.6

> <PUBCHEM_COORDINATE_TYPE>
2
5
10

$$$$