71492763
  -OEChem-03242010103D

 74 77  0     1  0  0  0  0  0999 V2000
    2.7598   -1.0408   -0.4196 O   0  0  0  0  0  0  0  0  0  0  0  0
    0.5669    0.7461    0.1219 O   0  0  0  0  0  0  0  0  0  0  0  0
    4.5513    3.0334    1.4944 O   0  0  0  0  0  0  0  0  0  0  0  0
    6.7415    0.8656   -2.1309 O   0  0  0  0  0  0  0  0  0  0  0  0
   -1.1918   -3.3433   -2.3976 O   0  0  0  0  0  0  0  0  0  0  0  0
   -1.1104   -4.7691    2.1738 O   0  0  0  0  0  0  0  0  0  0  0  0
   -2.1460   -4.9902   -0.3857 O   0  0  0  0  0  0  0  0  0  0  0  0
   -0.7850    1.7999    1.6656 O   0  0  0  0  0  0  0  0  0  0  0  0
   -5.8516    0.7044   -0.7376 O   0  0  0  0  0  0  0  0  0  0  0  0
   -6.6343    3.2264    0.1303 O   0  0  0  0  0  0  0  0  0  0  0  0
    1.3216    0.1578    1.1823 C   0  0  1  0  0  0  0  0  0  0  0  0
    1.9083   -1.1853    0.7285 C   0  0  1  0  0  0  0  0  0  0  0  0
    2.4568    1.1015    1.5738 C   0  0  0  0  0  0  0  0  0  0  0  0
    3.5913    1.0220    0.5882 C   0  0  0  0  0  0  0  0  0  0  0  0
    0.8232   -2.2034    0.4307 C   0  0  0  0  0  0  0  0  0  0  0  0
    3.6824   -0.0306   -0.3314 C   0  0  0  0  0  0  0  0  0  0  0  0
    4.5896    2.0056    0.5984 C   0  0  0  0  0  0  0  0  0  0  0  0
    4.7329   -0.0750   -1.2515 C   0  0  0  0  0  0  0  0  0  0  0  0
    0.3447   -3.0304    1.4467 C   0  0  0  0  0  0  0  0  0  0  0  0
    0.3041   -2.3121   -0.8595 C   0  0  0  0  0  0  0  0  0  0  0  0
    5.6456    1.9520   -0.3120 C   0  0  0  0  0  0  0  0  0  0  0  0
    5.7147    0.9146   -1.2390 C   0  0  0  0  0  0  0  0  0  0  0  0
   -0.4674    1.5522    0.5102 C   0  0  0  0  0  0  0  0  0  0  0  0
   -0.6934   -3.2477   -1.1335 C   0  0  0  0  0  0  0  0  0  0  0  0
   -0.6529   -3.9661    1.1728 C   0  0  0  0  0  0  0  0  0  0  0  0
   -1.1718   -4.0748   -0.1174 C   0  0  0  0  0  0  0  0  0  0  0  0
   -1.1572    2.0885   -0.7216 C   0  0  0  0  0  0  0  0  0  0  0  0
   -2.6163    2.3884   -0.4948 C   0  0  0  0  0  0  0  0  0  0  0  0
    5.2077    2.8269    2.7429 C   0  0  0  0  0  0  0  0  0  0  0  0
   -3.5745    1.4005   -0.7219 C   0  0  0  0  0  0  0  0  0  0  0  0
   -3.0091    3.6538   -0.0585 C   0  0  0  0  0  0  0  0  0  0  0  0
    7.7112    1.9102   -2.0625 C   0  0  0  0  0  0  0  0  0  0  0  0
   -0.6476   -2.4607   -3.3771 C   0  0  0  0  0  0  0  0  0  0  0  0
   -0.5267   -4.5932    3.4633 C   0  0  0  0  0  0  0  0  0  0  0  0
   -4.9253    1.6777   -0.5123 C   0  0  0  0  0  0  0  0  0  0  0  0
   -3.4969   -4.5619   -0.2283 C   0  0  0  0  0  0  0  0  0  0  0  0
   -4.3599    3.9311    0.1509 C   0  0  0  0  0  0  0  0  0  0  0  0
   -5.3181    2.9431   -0.0760 C   0  0  0  0  0  0  0  0  0  0  0  0
   -5.3666   -0.5610   -1.1822 C   0  0  0  0  0  0  0  0  0  0  0  0
   -6.9513    4.5438    0.5765 C   0  0  0  0  0  0  0  0  0  0  0  0
    0.6767   -0.0146    2.0543 H   0  0  0  0  0  0  0  0  0  0  0  0
    2.5365   -1.6013    1.5301 H   0  0  0  0  0  0  0  0  0  0  0  0
    2.8394    0.8086    2.5586 H   0  0  0  0  0  0  0  0  0  0  0  0
    2.0864    2.1312    1.6344 H   0  0  0  0  0  0  0  0  0  0  0  0
    4.7905   -0.8851   -1.9746 H   0  0  0  0  0  0  0  0  0  0  0  0
    0.7838   -2.8981    2.4298 H   0  0  0  0  0  0  0  0  0  0  0  0
    0.6971   -1.6385   -1.6125 H   0  0  0  0  0  0  0  0  0  0  0  0
    6.3806    2.7480   -0.2507 H   0  0  0  0  0  0  0  0  0  0  0  0
   -1.0673    1.3583   -1.5359 H   0  0  0  0  0  0  0  0  0  0  0  0
   -0.6260    2.9913   -1.0450 H   0  0  0  0  0  0  0  0  0  0  0  0
    6.2892    2.7485    2.5927 H   0  0  0  0  0  0  0  0  0  0  0  0
    4.8357    1.9284    3.2439 H   0  0  0  0  0  0  0  0  0  0  0  0
    5.0067    3.6910    3.3820 H   0  0  0  0  0  0  0  0  0  0  0  0
   -3.2090    0.4354   -1.0571 H   0  0  0  0  0  0  0  0  0  0  0  0
   -2.2706    4.4304    0.1228 H   0  0  0  0  0  0  0  0  0  0  0  0
    8.4530    1.7139   -2.8436 H   0  0  0  0  0  0  0  0  0  0  0  0
    8.2450    1.9019   -1.1060 H   0  0  0  0  0  0  0  0  0  0  0  0
    7.2670    2.8870   -2.2822 H   0  0  0  0  0  0  0  0  0  0  0  0
   -1.1563   -2.6769   -4.3225 H   0  0  0  0  0  0  0  0  0  0  0  0
    0.4192   -2.6470   -3.5418 H   0  0  0  0  0  0  0  0  0  0  0  0
   -0.8579   -1.4126   -3.1374 H   0  0  0  0  0  0  0  0  0  0  0  0
   -0.7316   -3.5957    3.8667 H   0  0  0  0  0  0  0  0  0  0  0  0
    0.5425   -4.8310    3.4587 H   0  0  0  0  0  0  0  0  0  0  0  0
   -1.0082   -5.3116    4.1350 H   0  0  0  0  0  0  0  0  0  0  0  0
   -4.1532   -5.4010   -0.4747 H   0  0  0  0  0  0  0  0  0  0  0  0
   -3.7197   -3.7328   -0.9074 H   0  0  0  0  0  0  0  0  0  0  0  0
   -3.6879   -4.2605    0.8064 H   0  0  0  0  0  0  0  0  0  0  0  0
   -4.5911    4.9350    0.4900 H   0  0  0  0  0  0  0  0  0  0  0  0
   -6.2372   -1.2126   -1.3107 H   0  0  0  0  0  0  0  0  0  0  0  0
   -4.7247   -1.0345   -0.4313 H   0  0  0  0  0  0  0  0  0  0  0  0
   -4.8794   -0.4863   -2.1605 H   0  0  0  0  0  0  0  0  0  0  0  0
   -8.0394    4.5927    0.6890 H   0  0  0  0  0  0  0  0  0  0  0  0
   -6.6745    5.2991   -0.1669 H   0  0  0  0  0  0  0  0  0  0  0  0
   -6.5204    4.7507    1.5620 H   0  0  0  0  0  0  0  0  0  0  0  0
  1 12  1  0  0  0  0
  1 16  1  0  0  0  0
  2 11  1  0  0  0  0
  2 23  1  0  0  0  0
  3 17  1  0  0  0  0
  3 29  1  0  0  0  0
  4 22  1  0  0  0  0
  4 32  1  0  0  0  0
  5 24  1  0  0  0  0
  5 33  1  0  0  0  0
  6 25  1  0  0  0  0
  6 34  1  0  0  0  0
  7 26  1  0  0  0  0
  7 36  1  0  0  0  0
  8 23  2  0  0  0  0
  9 35  1  0  0  0  0
  9 39  1  0  0  0  0
 10 38  1  0  0  0  0
 10 40  1  0  0  0  0
 11 12  1  0  0  0  0
 11 13  1  0  0  0  0
 11 41  1  0  0  0  0
 12 15  1  0  0  0  0
 12 42  1  0  0  0  0
 13 14  1  0  0  0  0
 13 43  1  0  0  0  0
 13 44  1  0  0  0  0
 14 16  2  0  0  0  0
 14 17  1  0  0  0  0
 15 19  2  0  0  0  0
 15 20  1  0  0  0  0
 16 18  1  0  0  0  0
 17 21  2  0  0  0  0
 18 22  2  0  0  0  0
 18 45  1  0  0  0  0
 19 25  1  0  0  0  0
 19 46  1  0  0  0  0
 20 24  2  0  0  0  0
 20 47  1  0  0  0  0
 21 22  1  0  0  0  0
 21 48  1  0  0  0  0
 23 27  1  0  0  0  0
 24 26  1  0  0  0  0
 25 26  2  0  0  0  0
 27 28  1  0  0  0  0
 27 49  1  0  0  0  0
 27 50  1  0  0  0  0
 28 30  2  0  0  0  0
 28 31  1  0  0  0  0
 29 51  1  0  0  0  0
 29 52  1  0  0  0  0
 29 53  1  0  0  0  0
 30 35  1  0  0  0  0
 30 54  1  0  0  0  0
 31 37  2  0  0  0  0
 31 55  1  0  0  0  0
 32 56  1  0  0  0  0
 32 57  1  0  0  0  0
 32 58  1  0  0  0  0
 33 59  1  0  0  0  0
 33 60  1  0  0  0  0
 33 61  1  0  0  0  0
 34 62  1  0  0  0  0
 34 63  1  0  0  0  0
 34 64  1  0  0  0  0
 35 38  2  0  0  0  0
 36 65  1  0  0  0  0
 36 66  1  0  0  0  0
 36 67  1  0  0  0  0
 37 38  1  0  0  0  0
 37 68  1  0  0  0  0
 39 69  1  0  0  0  0
 39 70  1  0  0  0  0
 39 71  1  0  0  0  0
 40 72  1  0  0  0  0
 40 73  1  0  0  0  0
 40 74  1  0  0  0  0
M  END
> <PUBCHEM_COMPOUND_CID>
71492763

> <PUBCHEM_CONFORMER_RMSD>
1.2

> <PUBCHEM_CONFORMER_DIVERSEORDER>
3
36
19
24
33
28
39
31
1
38
34
40
37
12
17
41
35
45
29
25
15
32
42
22
5
26
6
21
27
13
30
9
11
44
2
14
7
43
23
8
18
16
20
10
4

> <PUBCHEM_MMFF94_PARTIAL_CHARGES>
47
1 -0.36
10 -0.36
11 0.28
12 0.42
13 0.14
14 -0.14
15 -0.14
16 0.08
17 0.08
18 -0.15
19 -0.15
2 -0.43
20 -0.15
21 -0.15
22 0.08
23 0.66
24 0.08
25 0.08
26 0.08
27 0.2
28 -0.14
29 0.28
3 -0.36
30 -0.15
31 -0.15
32 0.28
33 0.28
34 0.28
35 0.08
36 0.28
37 -0.15
38 0.08
39 0.28
4 -0.36
40 0.28
45 0.15
46 0.15
47 0.15
48 0.15
5 -0.36
54 0.15
55 0.15
6 -0.36
68 0.15
7 -0.36
8 -0.57
9 -0.36

> <PUBCHEM_EFFECTIVE_ROTOR_COUNT>
12.8

> <PUBCHEM_PHARMACOPHORE_FEATURES>
13
1 1 acceptor
1 10 acceptor
1 3 acceptor
1 4 acceptor
1 5 acceptor
1 6 acceptor
1 7 acceptor
1 8 acceptor
1 9 acceptor
6 1 11 12 13 14 16 rings
6 14 16 17 18 21 22 rings
6 15 19 20 24 25 26 rings
6 28 30 31 35 37 38 rings

> <PUBCHEM_HEAVY_ATOM_COUNT>
40

> <PUBCHEM_ATOM_DEF_STEREO_COUNT>
2

> <PUBCHEM_ATOM_UDEF_STEREO_COUNT>
0

> <PUBCHEM_BOND_DEF_STEREO_COUNT>
0

> <PUBCHEM_BOND_UDEF_STEREO_COUNT>
0

> <PUBCHEM_ISOTOPIC_ATOM_COUNT>
0

> <PUBCHEM_COMPONENT_COUNT>
1

> <PUBCHEM_CACTVS_TAUTO_COUNT>
1

> <PUBCHEM_CONFORMER_ID>
0442E49B00000003

> <PUBCHEM_MMFF94_ENERGY>
177.68

> <PUBCHEM_FEATURE_SELFOVERLAP>
66.026

> <PUBCHEM_SHAPE_FINGERPRINT>
11093857 51 16771243805605748663
11991303 11 18334866021537072150
12156800 1 18120401948991193031
12788726 201 18118670252437145146
13150687 139 18266471918986831262
13540713 4 17987236815340667264
1361 2 18334860467786441741
14190465 44 18336258038235240680
14556957 393 17683829948651381892
14930077 153 18045799037459796716
15276724 80 18124610931458332884
15361156 5 18053103110477810196
15392192 104 18268154168021262705
15400415 2 18267298734572855917
15406563 42 18187656769460573291
15444296 8 17904786705183021870
15484559 13 18126848201107654876
15968369 153 17767114676625226293
16993438 75 18335990856514046011
18365409 1 18409736200736794221
19301676 85 17836670539194970414
21033650 10 18116714217583903682
21716022 299 17551524236737798278
21772528 278 18334864908755836893
23516275 137 16844748464256540047
25223398 141 18266754643967868820
3178227 256 18047187449830382426
4058900 60 18265904557516771777
437795 70 17985816262795862783
4461854 278 18339661013912139195
5265222 85 18341897398497705949
563151 40 18408042918006225211
9658208 31 18413103983536512944

> <PUBCHEM_SHAPE_MULTIPOLES>
764.49
15.18
7.87
2.42
4.85
7.96
-0.27
-24.29
5.14
-10.74
-2.9
2.41
2.18
-0.22

> <PUBCHEM_SHAPE_SELFOVERLAP>
1642.232

> <PUBCHEM_SHAPE_VOLUME>
425.2

> <PUBCHEM_COORDINATE_TYPE>
2
5
10

$$$$