26
 OpenBabel03292022263D

 95100  0  0  1  0  0  0  0  0999 V2000
   -4.7841    2.2269   -4.1042 C   0  0  0  0  0  0  0  0  0  0  0  0
   -4.6530    3.3389   -4.9785 O   0  0  0  0  0  0  0  0  0  0  0  0
   -3.4632    3.4203   -5.6503 C   0  0  0  0  0  0  0  0  0  0  0  0
   -3.5335    4.0784   -6.8746 C   0  0  0  0  0  0  0  0  0  0  0  0
   -2.3800    4.2554   -7.6364 C   0  0  0  0  0  0  0  0  0  0  0  0
   -1.1478    3.7798   -7.1699 C   0  0  0  0  0  0  0  0  0  0  0  0
    0.0409    4.1170   -7.9663 C   0  0  0  0  0  0  0  0  0  0  0  0
    0.0024    5.1721   -8.5828 O   0  0  0  0  0  0  0  0  0  0  0  0
    1.0833    3.1953   -8.0174 N   0  0  0  0  0  0  0  0  0  0  0  0
    2.2778    3.3951   -8.7573 C   0  0  0  0  0  0  0  0  0  0  0  0
    2.6679    4.6556   -9.2257 C   0  0  0  0  0  0  0  0  0  0  0  0
    3.8088    4.8056  -10.0157 C   0  0  0  0  0  0  0  0  0  0  0  0
    4.1589    6.1163  -10.6222 C   0  0  0  0  0  0  0  0  0  0  0  0
    4.7450    6.0970  -11.6949 O   0  0  0  0  0  0  0  0  0  0  0  0
    3.8282    7.2490   -9.8911 N   0  0  0  0  0  0  0  0  0  0  0  0
    4.0627    8.5805  -10.3122 C   0  0  0  0  0  0  0  0  0  0  0  0
    4.3137    8.9207  -11.6425 C   0  0  0  0  0  0  0  0  0  0  0  0
    4.6760   10.2295  -11.9912 C   0  0  0  0  0  0  0  0  0  0  0  0
    5.1681   10.4547  -13.3819 C   0  0  0  0  0  0  0  0  0  0  0  0
    5.1881    9.5859  -14.2405 O   0  0  0  0  0  0  0  0  0  0  0  0
    5.7484   11.6706  -13.4763 O   0  0  0  0  0  0  0  0  0  0  0  0
    6.6764   11.8386  -14.5826 C   0  0  2  0  0  0  0  0  0  0  0  0
    7.9795   11.1860  -14.1285 C   0  0  0  0  0  0  0  0  0  0  0  0
    8.6981   12.0960  -13.1779 C   0  0  0  0  0  0  0  0  0  0  0  0
    9.2362   11.7623  -11.9309 C   0  0  0  0  0  0  0  0  0  0  0  0
    9.1247   10.5785  -11.2545 O   0  0  0  0  0  0  0  0  0  0  0  0
    9.2588    9.3576  -11.9657 C   0  0  0  0  0  0  0  0  0  0  0  0
    9.8776   12.7579  -11.1738 C   0  0  0  0  0  0  0  0  0  0  0  0
   10.0591   14.0554  -11.6615 C   0  0  0  0  0  0  0  0  0  0  0  0
   10.7035   14.9128  -10.8117 O   0  0  0  0  0  0  0  0  0  0  0  0
   11.4166   15.9796  -11.4259 C   0  0  0  0  0  0  0  0  0  0  0  0
    9.5301   14.3891  -12.9013 C   0  0  0  0  0  0  0  0  0  0  0  0
    8.8174   13.4266  -13.6178 C   0  0  0  0  0  0  0  0  0  0  0  0
    8.2310   13.8257  -14.7948 O   0  0  0  0  0  0  0  0  0  0  0  0
    6.8722   13.3356  -14.9843 C   0  0  2  0  0  0  0  0  0  0  0  0
    5.8343   14.3060  -14.4171 C   0  0  0  0  0  0  0  0  0  0  0  0
    6.2045   15.5289  -13.8551 C   0  0  0  0  0  0  0  0  0  0  0  0
    5.2893   16.3431  -13.1715 C   0  0  0  0  0  0  0  0  0  0  0  0
    5.7131   17.5076  -12.5802 O   0  0  0  0  0  0  0  0  0  0  0  0
    6.7452   18.2200  -13.2551 C   0  0  0  0  0  0  0  0  0  0  0  0
    3.9558   15.9141  -13.0034 C   0  0  0  0  0  0  0  0  0  0  0  0
    3.0067   16.5335  -12.2346 O   0  0  0  0  0  0  0  0  0  0  0  0
    3.3201   17.7266  -11.5353 C   0  0  0  0  0  0  0  0  0  0  0  0
    3.5497   14.7304  -13.6554 C   0  0  0  0  0  0  0  0  0  0  0  0
    2.3273   14.1050  -13.6120 O   0  0  0  0  0  0  0  0  0  0  0  0
    1.1852   14.8668  -13.2578 C   0  0  0  0  0  0  0  0  0  0  0  0
    4.4760   13.9787  -14.3940 C   0  0  0  0  0  0  0  0  0  0  0  0
    4.6965   11.2315  -11.0123 C   0  0  0  0  0  0  0  0  0  0  0  0
    4.3902   10.9118   -9.6877 C   0  0  0  0  0  0  0  0  0  0  0  0
    4.0837    9.5951   -9.3481 C   0  0  0  0  0  0  0  0  0  0  0  0
    3.8625    9.2921   -8.0588 F   0  0  0  0  0  0  0  0  0  0  0  0
    4.5902    3.6874  -10.3265 C   0  0  0  0  0  0  0  0  0  0  0  0
    4.2369    2.4295   -9.8336 C   0  0  0  0  0  0  0  0  0  0  0  0
    3.0899    2.2940   -9.0516 C   0  0  0  0  0  0  0  0  0  0  0  0
    2.7426    1.0742   -8.6177 F   0  0  0  0  0  0  0  0  0  0  0  0
   -1.0663    3.1388   -5.9346 C   0  0  0  0  0  0  0  0  0  0  0  0
   -2.2304    2.9602   -5.1745 C   0  0  0  0  0  0  0  0  0  0  0  0
   -5.8129    2.2167   -3.7333 H   0  0  0  0  0  0  0  0  0  0  0  0
   -4.1232    2.3186   -3.2375 H   0  0  0  0  0  0  0  0  0  0  0  0
   -4.6080    1.2872   -4.6383 H   0  0  0  0  0  0  0  0  0  0  0  0
   -4.4797    4.4683   -7.2368 H   0  0  0  0  0  0  0  0  0  0  0  0
   -2.4415    4.7907   -8.5820 H   0  0  0  0  0  0  0  0  0  0  0  0
    0.9202    2.2665   -7.6667 H   0  0  0  0  0  0  0  0  0  0  0  0
    2.0684    5.5348   -9.0203 H   0  0  0  0  0  0  0  0  0  0  0  0
    3.5566    7.1432   -8.9192 H   0  0  0  0  0  0  0  0  0  0  0  0
    4.2612    8.1714  -12.4274 H   0  0  0  0  0  0  0  0  0  0  0  0
    6.2758   11.3109  -15.4586 H   0  0  0  0  0  0  0  0  0  0  0  0
    8.6329   10.9666  -14.9790 H   0  0  0  0  0  0  0  0  0  0  0  0
    7.7295   10.2424  -13.6602 H   0  0  0  0  0  0  0  0  0  0  0  0
    9.6214    8.6009  -11.2624 H   0  0  0  0  0  0  0  0  0  0  0  0
    9.9729    9.4218  -12.7927 H   0  0  0  0  0  0  0  0  0  0  0  0
    8.2810    9.0002  -12.2965 H   0  0  0  0  0  0  0  0  0  0  0  0
   10.2590   12.5117  -10.1841 H   0  0  0  0  0  0  0  0  0  0  0  0
   12.0550   16.4346  -10.6613 H   0  0  0  0  0  0  0  0  0  0  0  0
   10.7355   16.7541  -11.7929 H   0  0  0  0  0  0  0  0  0  0  0  0
   12.0677   15.6149  -12.2278 H   0  0  0  0  0  0  0  0  0  0  0  0
    9.6090   15.3955  -13.2962 H   0  0  0  0  0  0  0  0  0  0  0  0
    6.7457   13.3822  -16.0745 H   0  0  0  0  0  0  0  0  0  0  0  0
    7.2453   15.8230  -13.9043 H   0  0  0  0  0  0  0  0  0  0  0  0
    6.8117   19.2140  -12.8032 H   0  0  0  0  0  0  0  0  0  0  0  0
    6.5133   18.3460  -14.3181 H   0  0  0  0  0  0  0  0  0  0  0  0
    7.7176   17.7372  -13.1161 H   0  0  0  0  0  0  0  0  0  0  0  0
    2.4443   18.0020  -10.9407 H   0  0  0  0  0  0  0  0  0  0  0  0
    3.5076   18.5461  -12.2362 H   0  0  0  0  0  0  0  0  0  0  0  0
    4.1446   17.5832  -10.8295 H   0  0  0  0  0  0  0  0  0  0  0  0
    0.3055   14.2438  -13.4489 H   0  0  0  0  0  0  0  0  0  0  0  0
    1.0990   15.7627  -13.8799 H   0  0  0  0  0  0  0  0  0  0  0  0
    1.1729   15.1006  -12.1897 H   0  0  0  0  0  0  0  0  0  0  0  0
    4.1228   13.0723  -14.8855 H   0  0  0  0  0  0  0  0  0  0  0  0
    4.9798   12.2522  -11.2618 H   0  0  0  0  0  0  0  0  0  0  0  0
    4.4317   11.6737   -8.9160 H   0  0  0  0  0  0  0  0  0  0  0  0
    5.4661    3.7957  -10.9655 H   0  0  0  0  0  0  0  0  0  0  0  0
    4.8362    1.5576  -10.0799 H   0  0  0  0  0  0  0  0  0  0  0  0
   -0.1092    2.8297   -5.5210 H   0  0  0  0  0  0  0  0  0  0  0  0
   -2.1412    2.5029   -4.1930 H   0  0  0  0  0  0  0  0  0  0  0  0
  1  2  1  0  0  0  0
  1 58  1  0  0  0  0
  1 59  1  0  0  0  0
  1 60  1  0  0  0  0
  2  3  1  0  0  0  0
  3  4  1  0  0  0  0
  3 57  2  0  0  0  0
  4  5  2  0  0  0  0
  4 61  1  0  0  0  0
  5  6  1  0  0  0  0
  5 62  1  0  0  0  0
  6  7  1  0  0  0  0
  6 56  2  0  0  0  0
  7  8  2  0  0  0  0
  7  9  1  0  0  0  0
  9 10  1  0  0  0  0
  9 63  1  0  0  0  0
 10 11  1  0  0  0  0
 10 54  2  0  0  0  0
 11 12  2  0  0  0  0
 11 64  1  0  0  0  0
 12 13  1  0  0  0  0
 12 52  1  0  0  0  0
 13 14  2  0  0  0  0
 13 15  1  0  0  0  0
 15 16  1  0  0  0  0
 15 65  1  0  0  0  0
 16 17  1  0  0  0  0
 16 50  2  0  0  0  0
 17 18  2  0  0  0  0
 17 66  1  0  0  0  0
 18 19  1  0  0  0  0
 18 48  1  0  0  0  0
 19 20  2  0  0  0  0
 19 21  1  0  0  0  0
 21 22  1  0  0  0  0
 22 23  1  0  0  0  0
 22 35  1  0  0  0  0
 22 67  1  6  0  0  0
 23 24  1  0  0  0  0
 23 68  1  0  0  0  0
 23 69  1  0  0  0  0
 24 25  1  0  0  0  0
 24 33  2  0  0  0  0
 25 26  1  0  0  0  0
 25 28  2  0  0  0  0
 26 27  1  0  0  0  0
 27 70  1  0  0  0  0
 27 71  1  0  0  0  0
 27 72  1  0  0  0  0
 28 29  1  0  0  0  0
 28 73  1  0  0  0  0
 29 30  1  0  0  0  0
 29 32  2  0  0  0  0
 30 31  1  0  0  0  0
 31 74  1  0  0  0  0
 31 75  1  0  0  0  0
 31 76  1  0  0  0  0
 32 33  1  0  0  0  0
 32 77  1  0  0  0  0
 33 34  1  0  0  0  0
 34 35  1  0  0  0  0
 35 36  1  0  0  0  0
 35 78  1  6  0  0  0
 36 37  1  0  0  0  0
 36 47  2  0  0  0  0
 37 38  2  0  0  0  0
 37 79  1  0  0  0  0
 38 39  1  0  0  0  0
 38 41  1  0  0  0  0
 39 40  1  0  0  0  0
 40 80  1  0  0  0  0
 40 81  1  0  0  0  0
 40 82  1  0  0  0  0
 41 42  1  0  0  0  0
 41 44  2  0  0  0  0
 42 43  1  0  0  0  0
 43 83  1  0  0  0  0
 43 84  1  0  0  0  0
 43 85  1  0  0  0  0
 44 45  1  0  0  0  0
 44 47  1  0  0  0  0
 45 46  1  0  0  0  0
 46 86  1  0  0  0  0
 46 87  1  0  0  0  0
 46 88  1  0  0  0  0
 47 89  1  0  0  0  0
 48 49  2  0  0  0  0
 48 90  1  0  0  0  0
 49 50  1  0  0  0  0
 49 91  1  0  0  0  0
 50 51  1  0  0  0  0
 52 53  2  0  0  0  0
 52 92  1  0  0  0  0
 53 54  1  0  0  0  0
 53 93  1  0  0  0  0
 54 55  1  0  0  0  0
 56 57  1  0  0  0  0
 56 94  1  0  0  0  0
 57 95  1  0  0  0  0
M  END
>  <Energy>
211.922

$$$$