21721874
  -OEChem-03242010103D

 55 57  0     1  0  0  0  0  0999 V2000
    0.7675   -1.1614   -0.0504 O   0  0  0  0  0  0  0  0  0  0  0  0
   -0.3224    2.2868    0.6462 O   0  0  0  0  0  0  0  0  0  0  0  0
    2.3614    2.5786    0.5102 O   0  0  0  0  0  0  0  0  0  0  0  0
    4.7550    1.5702    0.4512 O   0  0  0  0  0  0  0  0  0  0  0  0
   -4.5027   -1.2000    2.1559 O   0  0  0  0  0  0  0  0  0  0  0  0
   -3.7495   -0.7182   -2.5495 O   0  0  0  0  0  0  0  0  0  0  0  0
    5.0781   -3.1262   -0.1487 O   0  0  0  0  0  0  0  0  0  0  0  0
   -5.4682   -1.2366   -0.4396 O   0  0  0  0  0  0  0  0  0  0  0  0
   -0.0859    3.6542   -1.2009 O   0  0  0  0  0  0  0  0  0  0  0  0
   -0.0003   -0.1069    0.5508 C   0  0  1  0  0  0  0  0  0  0  0  0
    0.4062    1.2598   -0.0034 C   0  0  2  0  0  0  0  0  0  0  0  0
   -1.4633   -0.4088    0.2857 C   0  0  0  0  0  0  0  0  0  0  0  0
    1.8778    1.4781    0.2727 C   0  0  0  0  0  0  0  0  0  0  0  0
    2.7255    0.2717    0.2024 C   0  0  0  0  0  0  0  0  0  0  0  0
    2.1219   -0.9759    0.0287 C   0  0  0  0  0  0  0  0  0  0  0  0
   -1.9459   -0.4262   -1.0229 C   0  0  0  0  0  0  0  0  0  0  0  0
   -2.3258   -0.6693    1.3506 C   0  0  0  0  0  0  0  0  0  0  0  0
    4.1167    0.3789    0.2799 C   0  0  0  0  0  0  0  0  0  0  0  0
    2.9160   -2.1163   -0.1028 C   0  0  0  0  0  0  0  0  0  0  0  0
   -3.6708   -0.9471    1.1070 C   0  0  0  0  0  0  0  0  0  0  0  0
   -3.2910   -0.7041   -1.2666 C   0  0  0  0  0  0  0  0  0  0  0  0
    4.3053   -2.0117   -0.0298 C   0  0  0  0  0  0  0  0  0  0  0  0
    4.9040   -0.7672    0.1659 C   0  0  0  0  0  0  0  0  0  0  0  0
   -4.1534   -0.9645   -0.2016 C   0  0  0  0  0  0  0  0  0  0  0  0
   -0.4986    3.4416   -0.0688 C   0  0  0  0  0  0  0  0  0  0  0  0
   -1.2821    4.4317    0.7385 C   0  0  0  0  0  0  0  0  0  0  0  0
    5.1173    2.2868   -0.7275 C   0  0  0  0  0  0  0  0  0  0  0  0
   -3.9293   -1.1626    3.4611 C   0  0  0  0  0  0  0  0  0  0  0  0
   -2.8023   -0.4416   -3.5792 C   0  0  0  0  0  0  0  0  0  0  0  0
    4.4019   -4.3668   -0.3459 C   0  0  0  0  0  0  0  0  0  0  0  0
   -6.3632   -0.1272   -0.4694 C   0  0  0  0  0  0  0  0  0  0  0  0
    0.1741   -0.1359    1.6365 H   0  0  0  0  0  0  0  0  0  0  0  0
    0.2819    1.2946   -1.0936 H   0  0  0  0  0  0  0  0  0  0  0  0
   -1.2324   -0.2329   -1.8157 H   0  0  0  0  0  0  0  0  0  0  0  0
   -1.8971   -0.6423    2.3464 H   0  0  0  0  0  0  0  0  0  0  0  0
    2.3958   -3.0571   -0.2512 H   0  0  0  0  0  0  0  0  0  0  0  0
    5.9873   -0.6924    0.2232 H   0  0  0  0  0  0  0  0  0  0  0  0
   -0.7359    4.6786    1.6523 H   0  0  0  0  0  0  0  0  0  0  0  0
   -1.4202    5.3470    0.1561 H   0  0  0  0  0  0  0  0  0  0  0  0
   -2.2655    4.0185    0.9770 H   0  0  0  0  0  0  0  0  0  0  0  0
    5.9614    1.7931   -1.2189 H   0  0  0  0  0  0  0  0  0  0  0  0
    4.2770    2.3642   -1.4249 H   0  0  0  0  0  0  0  0  0  0  0  0
    5.4241    3.2947   -0.4352 H   0  0  0  0  0  0  0  0  0  0  0  0
   -3.1670   -1.9385    3.5902 H   0  0  0  0  0  0  0  0  0  0  0  0
   -3.5556   -0.1634    3.7098 H   0  0  0  0  0  0  0  0  0  0  0  0
   -4.7321   -1.3862    4.1716 H   0  0  0  0  0  0  0  0  0  0  0  0
   -2.3984    0.5732   -3.4953 H   0  0  0  0  0  0  0  0  0  0  0  0
   -2.0159   -1.2031   -3.6199 H   0  0  0  0  0  0  0  0  0  0  0  0
   -3.3398   -0.4905   -4.5320 H   0  0  0  0  0  0  0  0  0  0  0  0
    3.8459   -4.3769   -1.2896 H   0  0  0  0  0  0  0  0  0  0  0  0
    5.1691   -5.1445   -0.4195 H   0  0  0  0  0  0  0  0  0  0  0  0
    3.7703   -4.6220    0.5118 H   0  0  0  0  0  0  0  0  0  0  0  0
   -6.3686    0.3896    0.4955 H   0  0  0  0  0  0  0  0  0  0  0  0
   -6.0867    0.5697   -1.2668 H   0  0  0  0  0  0  0  0  0  0  0  0
   -7.3698   -0.5046   -0.6690 H   0  0  0  0  0  0  0  0  0  0  0  0
  1 10  1  0  0  0  0
  1 15  1  0  0  0  0
  2 11  1  0  0  0  0
  2 25  1  0  0  0  0
  3 13  2  0  0  0  0
  4 18  1  0  0  0  0
  4 27  1  0  0  0  0
  5 20  1  0  0  0  0
  5 28  1  0  0  0  0
  6 21  1  0  0  0  0
  6 29  1  0  0  0  0
  7 22  1  0  0  0  0
  7 30  1  0  0  0  0
  8 24  1  0  0  0  0
  8 31  1  0  0  0  0
  9 25  2  0  0  0  0
 10 11  1  0  0  0  0
 10 12  1  0  0  0  0
 10 32  1  0  0  0  0
 11 13  1  0  0  0  0
 11 33  1  0  0  0  0
 12 16  2  0  0  0  0
 12 17  1  0  0  0  0
 13 14  1  0  0  0  0
 14 15  2  0  0  0  0
 14 18  1  0  0  0  0
 15 19  1  0  0  0  0
 16 21  1  0  0  0  0
 16 34  1  0  0  0  0
 17 20  2  0  0  0  0
 17 35  1  0  0  0  0
 18 23  2  0  0  0  0
 19 22  2  0  0  0  0
 19 36  1  0  0  0  0
 20 24  1  0  0  0  0
 21 24  2  0  0  0  0
 22 23  1  0  0  0  0
 23 37  1  0  0  0  0
 25 26  1  0  0  0  0
 26 38  1  0  0  0  0
 26 39  1  0  0  0  0
 26 40  1  0  0  0  0
 27 41  1  0  0  0  0
 27 42  1  0  0  0  0
 27 43  1  0  0  0  0
 28 44  1  0  0  0  0
 28 45  1  0  0  0  0
 28 46  1  0  0  0  0
 29 47  1  0  0  0  0
 29 48  1  0  0  0  0
 29 49  1  0  0  0  0
 30 50  1  0  0  0  0
 30 51  1  0  0  0  0
 30 52  1  0  0  0  0
 31 53  1  0  0  0  0
 31 54  1  0  0  0  0
 31 55  1  0  0  0  0
M  END
> <PUBCHEM_COMPOUND_CID>
21721874

> <PUBCHEM_CONFORMER_RMSD>
1

> <PUBCHEM_CONFORMER_DIVERSEORDER>
1
4
8
10
7
5
2
3
9
6

> <PUBCHEM_MMFF94_PARTIAL_CHARGES>
35
1 -0.36
10 0.42
11 0.34
12 -0.14
13 0.42
14 0.09
15 0.08
16 -0.15
17 -0.15
18 0.08
19 -0.15
2 -0.43
20 0.08
21 0.08
22 0.08
23 -0.15
24 0.08
25 0.66
26 0.06
27 0.28
28 0.28
29 0.28
3 -0.57
30 0.28
31 0.28
34 0.15
35 0.15
36 0.15
37 0.15
4 -0.36
5 -0.36
6 -0.36
7 -0.36
8 -0.36
9 -0.57

> <PUBCHEM_EFFECTIVE_ROTOR_COUNT>
8.6

> <PUBCHEM_PHARMACOPHORE_FEATURES>
11
1 1 acceptor
1 3 acceptor
1 4 acceptor
1 5 acceptor
1 6 acceptor
1 7 acceptor
1 8 acceptor
1 9 acceptor
6 1 10 11 13 14 15 rings
6 12 16 17 20 21 24 rings
6 14 15 18 19 22 23 rings

> <PUBCHEM_HEAVY_ATOM_COUNT>
31

> <PUBCHEM_ATOM_DEF_STEREO_COUNT>
2

> <PUBCHEM_ATOM_UDEF_STEREO_COUNT>
0

> <PUBCHEM_BOND_DEF_STEREO_COUNT>
0

> <PUBCHEM_BOND_UDEF_STEREO_COUNT>
0

> <PUBCHEM_ISOTOPIC_ATOM_COUNT>
0

> <PUBCHEM_COMPONENT_COUNT>
1

> <PUBCHEM_CACTVS_TAUTO_COUNT>
2

> <PUBCHEM_CONFORMER_ID>
014B731200000001

> <PUBCHEM_MMFF94_ENERGY>
134.5493

> <PUBCHEM_FEATURE_SELFOVERLAP>
55.88

> <PUBCHEM_SHAPE_FINGERPRINT>
10622 236 17702356585840186319
10673678 19 16953113186406288828
11135926 11 18337677529062754054
11796584 16 17385725811262387242
11991303 11 17756154388480454149
12236239 1 17632296813198403243
12422481 6 17701557116294901243
12553582 1 18340769338232245648
12788726 201 18191291681566108889
13140716 1 18124880054341358368
13540713 4 18125989487485915312
13544653 18 18409451379679716378
13690498 29 18126020265105767806
13782708 43 17749678505985711091
13911987 19 18046357585129761684
140371 6 18188503483265902240
14294032 229 16270831969723974787
14840074 17 18059583528288927164
14866123 147 17977388231126970059
15361156 5 18266192629837237414
17357779 13 18335971013290267588
17492 89 18268144258935234606
17980427 23 17774458139505860161
1813 80 18201169788054786991
19301676 85 16395781260245544702
20511986 3 17561073739711179353
20645477 70 18335976524055262842
21033650 10 15792012208493688164
21133665 82 16465867434852063062
21478907 32 18340204068643121608
21641784 216 18188505626539298036
21703447 108 18337378341588563946
23175994 123 18260548939762642133
23536364 44 17971176050543798943
23557571 272 17240754103728187717
23559900 14 17240770587639219427
34797466 226 17095249128692069366
46194498 28 17604423132286989205
5104073 3 18196368110162447698
513202 73 18197223533686432067
59025328 239 17698680926888997781
621550 5 17459489873659212851
70251023 43 18339356358137166802
7164475 11 18339078190686064012

> <PUBCHEM_SHAPE_MULTIPOLES>
585.14
12.29
4.27
2.08
0.58
2.97
0.4
-7.72
0.16
-4.85
-0.07
4.56
-0.83
0.49

> <PUBCHEM_SHAPE_SELFOVERLAP>
1259.046

> <PUBCHEM_SHAPE_VOLUME>
322.6

> <PUBCHEM_COORDINATE_TYPE>
2
5
10

$$$$