122179395
  -OEChem-03242010103D

 66 69  0     1  0  0  0  0  0999 V2000
    2.2136    1.3433   -0.2487 O   0  0  0  0  0  0  0  0  0  0  0  0
   -0.5115   -1.1154    0.0577 O   0  0  0  0  0  0  0  0  0  0  0  0
    1.6723   -2.7038    0.1639 O   0  0  0  0  0  0  0  0  0  0  0  0
    4.2253   -3.0789   -0.1402 O   0  0  0  0  0  0  0  0  0  0  0  0
   -1.4498    3.8272    2.4437 O   0  0  0  0  0  0  0  0  0  0  0  0
   -2.6669    3.5989   -2.1828 O   0  0  0  0  0  0  0  0  0  0  0  0
    6.8808    0.7902   -0.8487 O   0  0  0  0  0  0  0  0  0  0  0  0
   -3.0345    4.6830    0.3391 O   0  0  0  0  0  0  0  0  0  0  0  0
   -0.6675   -1.9681    2.1904 O   0  0  0  0  0  0  0  0  0  0  0  0
   -5.9587   -4.0956   -0.6874 O   0  0  0  0  0  0  0  0  0  0  0  0
    0.9413    0.7308   -0.5119 C   0  0  1  0  0  0  0  0  0  0  0  0
    0.7222   -0.4952    0.3763 C   0  0  2  0  0  0  0  0  0  0  0  0
   -0.1222    1.7883   -0.2840 C   0  0  0  0  0  0  0  0  0  0  0  0
    1.8316   -1.4899    0.1137 C   0  0  0  0  0  0  0  0  0  0  0  0
    3.1559   -0.9059   -0.1769 C   0  0  0  0  0  0  0  0  0  0  0  0
    3.2722    0.4780   -0.3253 C   0  0  0  0  0  0  0  0  0  0  0  0
    4.2844   -1.7245   -0.2743 C   0  0  0  0  0  0  0  0  0  0  0  0
   -0.9185    2.2167   -1.3461 C   0  0  0  0  0  0  0  0  0  0  0  0
   -0.3037    2.3325    0.9873 C   0  0  0  0  0  0  0  0  0  0  0  0
    4.5288    1.0479   -0.5376 C   0  0  0  0  0  0  0  0  0  0  0  0
   -1.2814    3.3050    1.1967 C   0  0  0  0  0  0  0  0  0  0  0  0
   -1.8964    3.1892   -1.1369 C   0  0  0  0  0  0  0  0  0  0  0  0
    5.6577    0.2336   -0.6315 C   0  0  0  0  0  0  0  0  0  0  0  0
    5.5348   -1.1501   -0.5048 C   0  0  0  0  0  0  0  0  0  0  0  0
   -2.0779    3.7333    0.1346 C   0  0  0  0  0  0  0  0  0  0  0  0
   -1.1053   -1.8254    1.0593 C   0  0  0  0  0  0  0  0  0  0  0  0
   -2.3844   -2.4229    0.5998 C   0  0  0  0  0  0  0  0  0  0  0  0
    4.3888   -3.6075    1.1744 C   0  0  0  0  0  0  0  0  0  0  0  0
   -3.1375   -1.7856   -0.3864 C   0  0  0  0  0  0  0  0  0  0  0  0
   -2.8328   -3.6221    1.1535 C   0  0  0  0  0  0  0  0  0  0  0  0
   -0.5944    3.3346    3.4732 C   0  0  0  0  0  0  0  0  0  0  0  0
   -3.8803    2.8851   -2.4123 C   0  0  0  0  0  0  0  0  0  0  0  0
    7.9928   -0.0997   -0.9341 C   0  0  0  0  0  0  0  0  0  0  0  0
   -2.6423    6.0432    0.1686 C   0  0  0  0  0  0  0  0  0  0  0  0
   -4.3385   -2.3476   -0.8190 C   0  0  0  0  0  0  0  0  0  0  0  0
   -4.0338   -4.1842    0.7209 C   0  0  0  0  0  0  0  0  0  0  0  0
   -4.7866   -3.5469   -0.2654 C   0  0  0  0  0  0  0  0  0  0  0  0
   -6.6779   -3.3914   -1.6986 C   0  0  0  0  0  0  0  0  0  0  0  0
    0.9179    0.4347   -1.5712 H   0  0  0  0  0  0  0  0  0  0  0  0
    0.7847   -0.2268    1.4390 H   0  0  0  0  0  0  0  0  0  0  0  0
   -0.7835    1.7978   -2.3403 H   0  0  0  0  0  0  0  0  0  0  0  0
    0.3505    1.9770    1.7751 H   0  0  0  0  0  0  0  0  0  0  0  0
    4.6291    2.1258   -0.6396 H   0  0  0  0  0  0  0  0  0  0  0  0
    6.3773   -1.8310   -0.5715 H   0  0  0  0  0  0  0  0  0  0  0  0
    4.1148   -4.6658    1.1548 H   0  0  0  0  0  0  0  0  0  0  0  0
    5.4357   -3.5230    1.4824 H   0  0  0  0  0  0  0  0  0  0  0  0
    3.7478   -3.0924    1.8972 H   0  0  0  0  0  0  0  0  0  0  0  0
   -2.8173   -0.8443   -0.8256 H   0  0  0  0  0  0  0  0  0  0  0  0
   -2.2560   -4.1325    1.9204 H   0  0  0  0  0  0  0  0  0  0  0  0
   -0.7529    2.2658    3.6538 H   0  0  0  0  0  0  0  0  0  0  0  0
    0.4559    3.5743    3.2749 H   0  0  0  0  0  0  0  0  0  0  0  0
   -0.8691    3.8557    4.3963 H   0  0  0  0  0  0  0  0  0  0  0  0
   -3.6711    1.8327   -2.6294 H   0  0  0  0  0  0  0  0  0  0  0  0
   -4.5440    2.9649   -1.5455 H   0  0  0  0  0  0  0  0  0  0  0  0
   -4.3803    3.3284   -3.2777 H   0  0  0  0  0  0  0  0  0  0  0  0
    8.8838    0.5127   -1.1075 H   0  0  0  0  0  0  0  0  0  0  0  0
    7.9009   -0.7782   -1.7891 H   0  0  0  0  0  0  0  0  0  0  0  0
    8.1528   -0.6361    0.0075 H   0  0  0  0  0  0  0  0  0  0  0  0
   -3.5107    6.6773    0.3668 H   0  0  0  0  0  0  0  0  0  0  0  0
   -2.3064    6.2216   -0.8578 H   0  0  0  0  0  0  0  0  0  0  0  0
   -1.8484    6.3069    0.8745 H   0  0  0  0  0  0  0  0  0  0  0  0
   -4.8746   -1.7988   -1.5858 H   0  0  0  0  0  0  0  0  0  0  0  0
   -4.3775   -5.1190    1.1553 H   0  0  0  0  0  0  0  0  0  0  0  0
   -7.5827   -3.9693   -1.9137 H   0  0  0  0  0  0  0  0  0  0  0  0
   -6.1070   -3.3324   -2.6315 H   0  0  0  0  0  0  0  0  0  0  0  0
   -7.0039   -2.4061   -1.3483 H   0  0  0  0  0  0  0  0  0  0  0  0
  1 11  1  0  0  0  0
  1 16  1  0  0  0  0
  2 12  1  0  0  0  0
  2 26  1  0  0  0  0
  3 14  2  0  0  0  0
  4 17  1  0  0  0  0
  4 28  1  0  0  0  0
  5 21  1  0  0  0  0
  5 31  1  0  0  0  0
  6 22  1  0  0  0  0
  6 32  1  0  0  0  0
  7 23  1  0  0  0  0
  7 33  1  0  0  0  0
  8 25  1  0  0  0  0
  8 34  1  0  0  0  0
  9 26  2  0  0  0  0
 10 37  1  0  0  0  0
 10 38  1  0  0  0  0
 11 12  1  0  0  0  0
 11 13  1  0  0  0  0
 11 39  1  0  0  0  0
 12 14  1  0  0  0  0
 12 40  1  0  0  0  0
 13 18  2  0  0  0  0
 13 19  1  0  0  0  0
 14 15  1  0  0  0  0
 15 16  2  0  0  0  0
 15 17  1  0  0  0  0
 16 20  1  0  0  0  0
 17 24  2  0  0  0  0
 18 22  1  0  0  0  0
 18 41  1  0  0  0  0
 19 21  2  0  0  0  0
 19 42  1  0  0  0  0
 20 23  2  0  0  0  0
 20 43  1  0  0  0  0
 21 25  1  0  0  0  0
 22 25  2  0  0  0  0
 23 24  1  0  0  0  0
 24 44  1  0  0  0  0
 26 27  1  0  0  0  0
 27 29  2  0  0  0  0
 27 30  1  0  0  0  0
 28 45  1  0  0  0  0
 28 46  1  0  0  0  0
 28 47  1  0  0  0  0
 29 35  1  0  0  0  0
 29 48  1  0  0  0  0
 30 36  2  0  0  0  0
 30 49  1  0  0  0  0
 31 50  1  0  0  0  0
 31 51  1  0  0  0  0
 31 52  1  0  0  0  0
 32 53  1  0  0  0  0
 32 54  1  0  0  0  0
 32 55  1  0  0  0  0
 33 56  1  0  0  0  0
 33 57  1  0  0  0  0
 33 58  1  0  0  0  0
 34 59  1  0  0  0  0
 34 60  1  0  0  0  0
 34 61  1  0  0  0  0
 35 37  2  0  0  0  0
 35 62  1  0  0  0  0
 36 37  1  0  0  0  0
 36 63  1  0  0  0  0
 38 64  1  0  0  0  0
 38 65  1  0  0  0  0
 38 66  1  0  0  0  0
M  END
> <PUBCHEM_COMPOUND_CID>
122179395

> <PUBCHEM_CONFORMER_RMSD>
1.2

> <PUBCHEM_CONFORMER_DIVERSEORDER>
1
22
21
9
10
13
6
14
4
17
20
16
19
5
12
15
23
11
3
7
8
18
2

> <PUBCHEM_MMFF94_PARTIAL_CHARGES>
46
1 -0.36
10 -0.36
11 0.42
12 0.34
13 -0.14
14 0.42
15 0.09
16 0.08
17 0.08
18 -0.15
19 -0.15
2 -0.43
20 -0.15
21 0.08
22 0.08
23 0.08
24 -0.15
25 0.08
26 0.63
27 0.09
28 0.28
29 -0.15
3 -0.57
30 -0.15
31 0.28
32 0.28
33 0.28
34 0.28
35 -0.15
36 -0.15
37 0.08
38 0.28
4 -0.36
41 0.15
42 0.15
43 0.15
44 0.15
48 0.15
49 0.15
5 -0.36
6 -0.36
62 0.15
63 0.15
7 -0.36
8 -0.36
9 -0.57

> <PUBCHEM_EFFECTIVE_ROTOR_COUNT>
10.6

> <PUBCHEM_PHARMACOPHORE_FEATURES>
13
1 1 acceptor
1 10 acceptor
1 3 acceptor
1 4 acceptor
1 5 acceptor
1 6 acceptor
1 7 acceptor
1 8 acceptor
1 9 acceptor
6 1 11 12 14 15 16 rings
6 13 18 19 21 22 25 rings
6 15 16 17 20 23 24 rings
6 27 29 30 35 36 37 rings

> <PUBCHEM_HEAVY_ATOM_COUNT>
38

> <PUBCHEM_ATOM_DEF_STEREO_COUNT>
2

> <PUBCHEM_ATOM_UDEF_STEREO_COUNT>
0

> <PUBCHEM_BOND_DEF_STEREO_COUNT>
0

> <PUBCHEM_BOND_UDEF_STEREO_COUNT>
0

> <PUBCHEM_ISOTOPIC_ATOM_COUNT>
0

> <PUBCHEM_COMPONENT_COUNT>
1

> <PUBCHEM_CACTVS_TAUTO_COUNT>
1

> <PUBCHEM_CONFORMER_ID>
07484F4300000001

> <PUBCHEM_MMFF94_ENERGY>
171.7763

> <PUBCHEM_FEATURE_SELFOVERLAP>
66.034

> <PUBCHEM_SHAPE_FINGERPRINT>
10050765 1 18337676296629335830
102385 1 18195535787780904654
10653451 467 17834943549011689512
10930396 42 17905865318369958232
11115154 58 18342460396059563179
11331351 85 17773061793702872275
11411753 29 17703800219907445168
11720765 8 18051695748500328689
12156800 1 18044905001040525993
12440605 4 18189623747969996554
12633046 712 17058939840924660050
12788726 201 18334008419626703514
13540713 5 18188772731050995890
13631057 29 18410577314494852318
140371 6 17969519258731174438
14068700 675 18336267963455996260
14681490 219 18334571390875801223
14790565 3 17832143818644749549
15200665 1 18120939403902680755
15276724 80 18408606933259365655
15351339 4 18041821979448422579
15927050 60 18120662331742285994
16988056 13 17976811314462186941
17138139 8 17909791433415596205
18365409 1 18336832983705532437
19301676 85 17045157299061486886
19319366 153 17336461935435559105
21049683 271 18121786289759272167
21133410 230 18196913677687331640
21133410 58 15884887655989683301
21641784 216 18115609156620816788
23559900 14 17832420174748755379
27425 322 17836365947506293204
283562 15 18335424586413670010
38695281 34 17615969911244285265
4353968 344 18411989066446712822
4408954 87 17341011861085970465
44317340 157 17691123061177677639
508180 173 18188764093897877819
57527358 35 14041250261509411360
5969126 39 18411419553060212774
6004065 56 17980197814017394274
6677587 24 16233323061764888069

> <PUBCHEM_SHAPE_MULTIPOLES>
723.33
13.72
8.11
1.92
16.03
6.42
1.02
-14.07
-7.33
-14.38
1.63
-1.75
1.95
-0.72

> <PUBCHEM_SHAPE_SELFOVERLAP>
1572.164

> <PUBCHEM_SHAPE_VOLUME>
396.9

> <PUBCHEM_COORDINATE_TYPE>
2
5
10

$$$$