71492429
  -OEChem-03242010103D

 84 87  0     1  0  0  0  0  0999 V2000
    2.8885   -0.3071   -0.6928 O   0  0  0  0  0  0  0  0  0  0  0  0
    0.5773    0.1721    0.9577 O   0  0  0  0  0  0  0  0  0  0  0  0
    3.9106    3.3292    2.3411 O   0  0  0  0  0  0  0  0  0  0  0  0
    5.2959    3.4777   -2.2083 O   0  0  0  0  0  0  0  0  0  0  0  0
    1.4235   -5.8867    0.8320 O   0  0  0  0  0  0  0  0  0  0  0  0
   -0.6145   -3.2760   -2.6275 O   0  0  0  0  0  0  0  0  0  0  0  0
   -0.2959   -5.7030   -1.3320 O   0  0  0  0  0  0  0  0  0  0  0  0
   -0.6621   -0.9944    2.5076 O   0  0  0  0  0  0  0  0  0  0  0  0
   -2.6151    3.4413   -0.9120 O   0  0  0  0  0  0  0  0  0  0  0  0
   -5.2607   -0.3840    0.2312 O   0  0  0  0  0  0  0  0  0  0  0  0
   -5.0401    2.1043   -0.9656 O   0  0  0  0  0  0  0  0  0  0  0  0
    1.7842   -0.3565    1.5092 C   0  0  1  0  0  0  0  0  0  0  0  0
    2.5579   -1.1327    0.4355 C   0  0  1  0  0  0  0  0  0  0  0  0
    2.6465    0.7940    2.0245 C   0  0  0  0  0  0  0  0  0  0  0  0
    3.3515    1.4913    0.8925 C   0  0  0  0  0  0  0  0  0  0  0  0
    1.7942   -2.3558   -0.0372 C   0  0  0  0  0  0  0  0  0  0  0  0
    3.4390    0.9084   -0.3780 C   0  0  0  0  0  0  0  0  0  0  0  0
    3.9514    2.7388    1.1122 C   0  0  0  0  0  0  0  0  0  0  0  0
    4.0806    1.5816   -1.4208 C   0  0  0  0  0  0  0  0  0  0  0  0
    0.9293   -2.2596   -1.1274 C   0  0  0  0  0  0  0  0  0  0  0  0
    1.9567   -3.5760    0.6184 C   0  0  0  0  0  0  0  0  0  0  0  0
    4.6039    3.4033    0.0732 C   0  0  0  0  0  0  0  0  0  0  0  0
    4.6647    2.8268   -1.1935 C   0  0  0  0  0  0  0  0  0  0  0  0
    1.2543   -4.7003    0.1841 C   0  0  0  0  0  0  0  0  0  0  0  0
    0.2270   -3.3837   -1.5619 C   0  0  0  0  0  0  0  0  0  0  0  0
   -0.5724   -0.2329    1.5572 C   0  0  0  0  0  0  0  0  0  0  0  0
    0.3896   -4.6041   -0.9063 C   0  0  0  0  0  0  0  0  0  0  0  0
   -1.7489    0.3837    0.8936 C   0  0  0  0  0  0  0  0  0  0  0  0
    4.9785    3.0307    3.2371 C   0  0  0  0  0  0  0  0  0  0  0  0
   -2.9689   -0.2922    0.8697 C   0  0  0  0  0  0  0  0  0  0  0  0
   -1.6345    1.6376    0.2936 C   0  0  0  0  0  0  0  0  0  0  0  0
   -2.7400    2.2157   -0.3305 C   0  0  0  0  0  0  0  0  0  0  0  0
   -4.0744    0.2859    0.2457 C   0  0  0  0  0  0  0  0  0  0  0  0
    5.3227    2.8286   -3.4787 C   0  0  0  0  0  0  0  0  0  0  0  0
   -3.9600    1.5398   -0.3542 C   0  0  0  0  0  0  0  0  0  0  0  0
    2.3256   -5.8986    1.9367 C   0  0  0  0  0  0  0  0  0  0  0  0
   -0.7228   -1.9926   -3.2406 C   0  0  0  0  0  0  0  0  0  0  0  0
   -1.5773   -5.9314   -0.7498 C   0  0  0  0  0  0  0  0  0  0  0  0
   -1.6623    4.3355   -0.3402 C   0  0  0  0  0  0  0  0  0  0  0  0
   -5.8419   -0.6994    1.4950 C   0  0  0  0  0  0  0  0  0  0  0  0
   -5.8815    2.9277   -0.1612 C   0  0  0  0  0  0  0  0  0  0  0  0
   -2.1245    5.7592   -0.5660 C   0  0  0  0  0  0  0  0  0  0  0  0
   -7.3491   -0.7149    1.3544 C   0  0  0  0  0  0  0  0  0  0  0  0
   -7.0064    3.4687   -1.0175 C   0  0  0  0  0  0  0  0  0  0  0  0
    1.5841   -1.0222    2.3580 H   0  0  0  0  0  0  0  0  0  0  0  0
    3.5134   -1.4837    0.8526 H   0  0  0  0  0  0  0  0  0  0  0  0
    3.4058    0.3960    2.7079 H   0  0  0  0  0  0  0  0  0  0  0  0
    2.0169    1.5061    2.5707 H   0  0  0  0  0  0  0  0  0  0  0  0
    4.0974    1.0823   -2.3843 H   0  0  0  0  0  0  0  0  0  0  0  0
    0.8249   -1.2876   -1.5957 H   0  0  0  0  0  0  0  0  0  0  0  0
    2.6396   -3.5890    1.4612 H   0  0  0  0  0  0  0  0  0  0  0  0
    5.0631    4.3728    0.2502 H   0  0  0  0  0  0  0  0  0  0  0  0
    4.7536    3.4915    4.2029 H   0  0  0  0  0  0  0  0  0  0  0  0
    5.9162    3.4510    2.8601 H   0  0  0  0  0  0  0  0  0  0  0  0
    5.0863    1.9517    3.3821 H   0  0  0  0  0  0  0  0  0  0  0  0
   -3.0559   -1.2751    1.3266 H   0  0  0  0  0  0  0  0  0  0  0  0
   -0.6733    2.1428    0.3044 H   0  0  0  0  0  0  0  0  0  0  0  0
    5.8637    3.4869   -4.1663 H   0  0  0  0  0  0  0  0  0  0  0  0
    4.3143    2.7003   -3.8867 H   0  0  0  0  0  0  0  0  0  0  0  0
    5.8777    1.8851   -3.4372 H   0  0  0  0  0  0  0  0  0  0  0  0
    1.9794   -5.2491    2.7479 H   0  0  0  0  0  0  0  0  0  0  0  0
    2.3371   -6.9199    2.3316 H   0  0  0  0  0  0  0  0  0  0  0  0
    3.3499   -5.6680    1.6244 H   0  0  0  0  0  0  0  0  0  0  0  0
   -1.4302   -2.0916   -4.0706 H   0  0  0  0  0  0  0  0  0  0  0  0
    0.2300   -1.6691   -3.6735 H   0  0  0  0  0  0  0  0  0  0  0  0
   -1.1440   -1.2509   -2.5529 H   0  0  0  0  0  0  0  0  0  0  0  0
   -1.4887   -6.0776    0.3314 H   0  0  0  0  0  0  0  0  0  0  0  0
   -2.2514   -5.0953   -0.9612 H   0  0  0  0  0  0  0  0  0  0  0  0
   -1.9974   -6.8391   -1.1917 H   0  0  0  0  0  0  0  0  0  0  0  0
   -1.5656    4.1926    0.7435 H   0  0  0  0  0  0  0  0  0  0  0  0
   -0.6896    4.1827   -0.8209 H   0  0  0  0  0  0  0  0  0  0  0  0
   -5.4871   -1.6858    1.8126 H   0  0  0  0  0  0  0  0  0  0  0  0
   -5.5589    0.0399    2.2547 H   0  0  0  0  0  0  0  0  0  0  0  0
   -6.2948    2.3439    0.6683 H   0  0  0  0  0  0  0  0  0  0  0  0
   -5.3006    3.7606    0.2516 H   0  0  0  0  0  0  0  0  0  0  0  0
   -1.4108    6.4742   -0.1472 H   0  0  0  0  0  0  0  0  0  0  0  0
   -3.1035    5.9246   -0.1039 H   0  0  0  0  0  0  0  0  0  0  0  0
   -2.2402    5.9616   -1.6360 H   0  0  0  0  0  0  0  0  0  0  0  0
   -7.8278   -0.9646    2.3054 H   0  0  0  0  0  0  0  0  0  0  0  0
   -7.6582   -1.4469    0.6009 H   0  0  0  0  0  0  0  0  0  0  0  0
   -7.7173    0.2600    1.0191 H   0  0  0  0  0  0  0  0  0  0  0  0
   -6.6076    4.0482   -1.8567 H   0  0  0  0  0  0  0  0  0  0  0  0
   -7.5922    2.6489   -1.4462 H   0  0  0  0  0  0  0  0  0  0  0  0
   -7.6715    4.1085   -0.4309 H   0  0  0  0  0  0  0  0  0  0  0  0
  1 13  1  0  0  0  0
  1 17  1  0  0  0  0
  2 12  1  0  0  0  0
  2 26  1  0  0  0  0
  3 18  1  0  0  0  0
  3 29  1  0  0  0  0
  4 23  1  0  0  0  0
  4 34  1  0  0  0  0
  5 24  1  0  0  0  0
  5 36  1  0  0  0  0
  6 25  1  0  0  0  0
  6 37  1  0  0  0  0
  7 27  1  0  0  0  0
  7 38  1  0  0  0  0
  8 26  2  0  0  0  0
  9 32  1  0  0  0  0
  9 39  1  0  0  0  0
 10 33  1  0  0  0  0
 10 40  1  0  0  0  0
 11 35  1  0  0  0  0
 11 41  1  0  0  0  0
 12 13  1  0  0  0  0
 12 14  1  0  0  0  0
 12 45  1  0  0  0  0
 13 16  1  0  0  0  0
 13 46  1  0  0  0  0
 14 15  1  0  0  0  0
 14 47  1  0  0  0  0
 14 48  1  0  0  0  0
 15 17  2  0  0  0  0
 15 18  1  0  0  0  0
 16 20  2  0  0  0  0
 16 21  1  0  0  0  0
 17 19  1  0  0  0  0
 18 22  2  0  0  0  0
 19 23  2  0  0  0  0
 19 49  1  0  0  0  0
 20 25  1  0  0  0  0
 20 50  1  0  0  0  0
 21 24  2  0  0  0  0
 21 51  1  0  0  0  0
 22 23  1  0  0  0  0
 22 52  1  0  0  0  0
 24 27  1  0  0  0  0
 25 27  2  0  0  0  0
 26 28  1  0  0  0  0
 28 30  2  0  0  0  0
 28 31  1  0  0  0  0
 29 53  1  0  0  0  0
 29 54  1  0  0  0  0
 29 55  1  0  0  0  0
 30 33  1  0  0  0  0
 30 56  1  0  0  0  0
 31 32  2  0  0  0  0
 31 57  1  0  0  0  0
 32 35  1  0  0  0  0
 33 35  2  0  0  0  0
 34 58  1  0  0  0  0
 34 59  1  0  0  0  0
 34 60  1  0  0  0  0
 36 61  1  0  0  0  0
 36 62  1  0  0  0  0
 36 63  1  0  0  0  0
 37 64  1  0  0  0  0
 37 65  1  0  0  0  0
 37 66  1  0  0  0  0
 38 67  1  0  0  0  0
 38 68  1  0  0  0  0
 38 69  1  0  0  0  0
 39 42  1  0  0  0  0
 39 70  1  0  0  0  0
 39 71  1  0  0  0  0
 40 43  1  0  0  0  0
 40 72  1  0  0  0  0
 40 73  1  0  0  0  0
 41 44  1  0  0  0  0
 41 74  1  0  0  0  0
 41 75  1  0  0  0  0
 42 76  1  0  0  0  0
 42 77  1  0  0  0  0
 42 78  1  0  0  0  0
 43 79  1  0  0  0  0
 43 80  1  0  0  0  0
 43 81  1  0  0  0  0
 44 82  1  0  0  0  0
 44 83  1  0  0  0  0
 44 84  1  0  0  0  0
M  END
> <PUBCHEM_COMPOUND_CID>
71492429

> <PUBCHEM_CONFORMER_RMSD>
1.4

> <PUBCHEM_CONFORMER_DIVERSEORDER>
7
9
1
5
6
4
2
8
3

> <PUBCHEM_MMFF94_PARTIAL_CHARGES>
47
1 -0.36
10 -0.36
11 -0.36
12 0.28
13 0.42
14 0.14
15 -0.14
16 -0.14
17 0.08
18 0.08
19 -0.15
2 -0.43
20 -0.15
21 -0.15
22 -0.15
23 0.08
24 0.08
25 0.08
26 0.63
27 0.08
28 0.09
29 0.28
3 -0.36
30 -0.15
31 -0.15
32 0.08
33 0.08
34 0.28
35 0.08
36 0.28
37 0.28
38 0.28
39 0.28
4 -0.36
40 0.28
41 0.28
49 0.15
5 -0.36
50 0.15
51 0.15
52 0.15
56 0.15
57 0.15
6 -0.36
7 -0.36
8 -0.57
9 -0.36

> <PUBCHEM_EFFECTIVE_ROTOR_COUNT>
15.8

> <PUBCHEM_PHARMACOPHORE_FEATURES>
14
1 1 acceptor
1 10 acceptor
1 11 acceptor
1 3 acceptor
1 4 acceptor
1 5 acceptor
1 6 acceptor
1 7 acceptor
1 8 acceptor
1 9 acceptor
6 1 12 13 14 15 17 rings
6 15 17 18 19 22 23 rings
6 16 20 21 24 25 27 rings
6 28 30 31 32 33 35 rings

> <PUBCHEM_HEAVY_ATOM_COUNT>
44

> <PUBCHEM_ATOM_DEF_STEREO_COUNT>
2

> <PUBCHEM_ATOM_UDEF_STEREO_COUNT>
0

> <PUBCHEM_BOND_DEF_STEREO_COUNT>
0

> <PUBCHEM_BOND_UDEF_STEREO_COUNT>
0

> <PUBCHEM_ISOTOPIC_ATOM_COUNT>
0

> <PUBCHEM_COMPONENT_COUNT>
1

> <PUBCHEM_CACTVS_TAUTO_COUNT>
1

> <PUBCHEM_CONFORMER_ID>
0442E34D00000007

> <PUBCHEM_MMFF94_ENERGY>
192.1612

> <PUBCHEM_FEATURE_SELFOVERLAP>
71.109

> <PUBCHEM_SHAPE_FINGERPRINT>
10290309 65 18410014334534792763
10439779 11 17978217271537040610
10974685 15 18125721447183035908
11093857 51 18188503393272192740
11991303 11 18123488316980432262
12156800 1 17549575206048439031
12160290 23 17841718705782121018
1361 2 18339929337081512041
14004853 49 18271800250839569787
14068700 675 16960416851339800682
14068700 686 18336555971336251185
14294032 229 18195525033013289216
15198563 99 17545894079741481238
15484559 13 18131063818724852660
18365409 1 17769941500300198231
21304303 282 17982141699367685874
23559900 14 18194395589974419179
4066623 53 16679492669697874548
44802255 64 17903392465120946908
469060 322 17691405634795084690
5223283 242 17257651115631955405
6086070 43 17177983831477206245
613672 6 17332236499360040259
6695519 79 18271816765189420427
7399639 24 18412256234053520833
9658208 31 18127698338660866480

> <PUBCHEM_SHAPE_MULTIPOLES>
840.94
12.88
9.71
2.68
16.77
11.44
-0.64
-17.32
0.36
-3.98
-2.11
-3.45
-0.46
0.16

> <PUBCHEM_SHAPE_SELFOVERLAP>
1790.316

> <PUBCHEM_SHAPE_VOLUME>
472.5

> <PUBCHEM_COORDINATE_TYPE>
2
5
10

$$$$