127045057
  -OEChem-03242010103D

 60 63  0     0  0  0  0  0  0999 V2000
    5.6559    1.2377   -2.8508 O   0  0  0  0  0  0  0  0  0  0  0  0
    7.6430    2.0977   -1.1082 O   0  0  0  0  0  0  0  0  0  0  0  0
   -5.3702    2.9981    0.9719 O   0  0  0  0  0  0  0  0  0  0  0  0
   -8.0722    2.7192    0.3839 O   0  0  0  0  0  0  0  0  0  0  0  0
   -2.7124   -3.4630   -1.6910 O   0  0  0  0  0  0  0  0  0  0  0  0
    2.0719   -0.7854    0.1218 N   0  0  0  0  0  0  0  0  0  0  0  0
    2.9584   -0.5076    2.2833 N   0  0  0  0  0  0  0  0  0  0  0  0
    5.1039    0.5407    2.6072 N   0  0  0  0  0  0  0  0  0  0  0  0
    4.2356    0.2772    0.3873 C   0  0  0  0  0  0  0  0  0  0  0  0
    3.1187   -0.3255    0.9590 C   0  0  0  0  0  0  0  0  0  0  0  0
    5.2318    0.7069    1.2791 C   0  0  0  0  0  0  0  0  0  0  0  0
    4.3801    0.4563   -0.9995 C   0  0  0  0  0  0  0  0  0  0  0  0
    1.1501   -1.8367    0.2486 C   0  0  0  0  0  0  0  0  0  0  0  0
    5.5227    1.0669   -1.5068 C   0  0  0  0  0  0  0  0  0  0  0  0
    6.3648    1.3149    0.7440 C   0  0  0  0  0  0  0  0  0  0  0  0
    6.5161    1.4966   -0.6338 C   0  0  0  0  0  0  0  0  0  0  0  0
   -0.1128   -1.7309   -0.3341 C   0  0  0  0  0  0  0  0  0  0  0  0
   -1.0287   -2.7755   -0.2088 C   0  0  0  0  0  0  0  0  0  0  0  0
    1.4973   -2.9874    0.9566 C   0  0  0  0  0  0  0  0  0  0  0  0
   -0.6814   -3.9262    0.4992 C   0  0  0  0  0  0  0  0  0  0  0  0
    0.5816   -4.0323    1.0816 C   0  0  0  0  0  0  0  0  0  0  0  0
   -2.3458   -2.6646   -0.8154 C   0  0  0  0  0  0  0  0  0  0  0  0
    3.9743   -0.0575    3.0371 C   0  0  0  0  0  0  0  0  0  0  0  0
   -5.4008   -0.3071   -0.5887 C   0  0  0  0  0  0  0  0  0  0  0  0
   -3.2451   -1.5408   -0.3826 C   0  0  0  0  0  0  0  0  0  0  0  0
   -4.4569   -1.3841   -0.9357 C   0  0  0  0  0  0  0  0  0  0  0  0
   -4.9390    0.8524    0.0345 C   0  0  0  0  0  0  0  0  0  0  0  0
   -5.8333    1.8711    0.3629 C   0  0  0  0  0  0  0  0  0  0  0  0
   -6.7570   -0.4476   -0.8835 C   0  0  0  0  0  0  0  0  0  0  0  0
   -7.1895    1.7306    0.0684 C   0  0  0  0  0  0  0  0  0  0  0  0
   -7.6514    0.5712   -0.5548 C   0  0  0  0  0  0  0  0  0  0  0  0
    4.5891    0.7674   -3.6734 C   0  0  0  0  0  0  0  0  0  0  0  0
    8.6121    2.5083   -0.1457 C   0  0  0  0  0  0  0  0  0  0  0  0
   -3.9702    3.0623    1.2378 C   0  0  0  0  0  0  0  0  0  0  0  0
   -9.4407    2.4968    0.0488 C   0  0  0  0  0  0  0  0  0  0  0  0
    3.5909    0.0984   -1.6491 H   0  0  0  0  0  0  0  0  0  0  0  0
    1.8094   -0.1073   -0.5883 H   0  0  0  0  0  0  0  0  0  0  0  0
    7.1120    1.6332    1.4655 H   0  0  0  0  0  0  0  0  0  0  0  0
   -0.3798   -0.8345   -0.8901 H   0  0  0  0  0  0  0  0  0  0  0  0
    2.4795   -3.1003    1.4077 H   0  0  0  0  0  0  0  0  0  0  0  0
   -1.3866   -4.7468    0.6045 H   0  0  0  0  0  0  0  0  0  0  0  0
    0.8528   -4.9296    1.6303 H   0  0  0  0  0  0  0  0  0  0  0  0
    3.8773   -0.1886    4.1080 H   0  0  0  0  0  0  0  0  0  0  0  0
   -2.8603   -0.8995    0.4018 H   0  0  0  0  0  0  0  0  0  0  0  0
   -4.8049   -2.0762   -1.6987 H   0  0  0  0  0  0  0  0  0  0  0  0
   -3.8779    0.9477    0.2255 H   0  0  0  0  0  0  0  0  0  0  0  0
   -7.1338   -1.3453   -1.3679 H   0  0  0  0  0  0  0  0  0  0  0  0
   -8.6895    0.3932   -0.8132 H   0  0  0  0  0  0  0  0  0  0  0  0
    4.8626    0.9877   -4.7107 H   0  0  0  0  0  0  0  0  0  0  0  0
    3.6558    1.3041   -3.4717 H   0  0  0  0  0  0  0  0  0  0  0  0
    4.4721   -0.3194   -3.6013 H   0  0  0  0  0  0  0  0  0  0  0  0
    9.4399    2.9652   -0.6982 H   0  0  0  0  0  0  0  0  0  0  0  0
    9.0289    1.6539    0.3985 H   0  0  0  0  0  0  0  0  0  0  0  0
    8.2156    3.2790    0.5240 H   0  0  0  0  0  0  0  0  0  0  0  0
   -3.7812    4.0221    1.7302 H   0  0  0  0  0  0  0  0  0  0  0  0
   -3.3825    3.0614    0.3134 H   0  0  0  0  0  0  0  0  0  0  0  0
   -3.6542    2.2814    1.9379 H   0  0  0  0  0  0  0  0  0  0  0  0
   -9.9992    3.3820    0.3707 H   0  0  0  0  0  0  0  0  0  0  0  0
   -9.5820    2.4084   -1.0338 H   0  0  0  0  0  0  0  0  0  0  0  0
   -9.8563    1.6431    0.5949 H   0  0  0  0  0  0  0  0  0  0  0  0
  1 14  1  0  0  0  0
  1 32  1  0  0  0  0
  2 16  1  0  0  0  0
  2 33  1  0  0  0  0
  3 28  1  0  0  0  0
  3 34  1  0  0  0  0
  4 30  1  0  0  0  0
  4 35  1  0  0  0  0
  5 22  2  0  0  0  0
  6 10  1  0  0  0  0
  6 13  1  0  0  0  0
  6 37  1  0  0  0  0
  7 10  2  0  0  0  0
  7 23  1  0  0  0  0
  8 11  1  0  0  0  0
  8 23  2  0  0  0  0
  9 10  1  0  0  0  0
  9 11  1  0  0  0  0
  9 12  2  0  0  0  0
 11 15  2  0  0  0  0
 12 14  1  0  0  0  0
 12 36  1  0  0  0  0
 13 17  1  0  0  0  0
 13 19  2  0  0  0  0
 14 16  2  0  0  0  0
 15 16  1  0  0  0  0
 15 38  1  0  0  0  0
 17 18  2  0  0  0  0
 17 39  1  0  0  0  0
 18 20  1  0  0  0  0
 18 22  1  0  0  0  0
 19 21  1  0  0  0  0
 19 40  1  0  0  0  0
 20 21  2  0  0  0  0
 20 41  1  0  0  0  0
 21 42  1  0  0  0  0
 22 25  1  0  0  0  0
 23 43  1  0  0  0  0
 24 26  1  0  0  0  0
 24 27  2  0  0  0  0
 24 29  1  0  0  0  0
 25 26  2  0  0  0  0
 25 44  1  0  0  0  0
 26 45  1  0  0  0  0
 27 28  1  0  0  0  0
 27 46  1  0  0  0  0
 28 30  2  0  0  0  0
 29 31  2  0  0  0  0
 29 47  1  0  0  0  0
 30 31  1  0  0  0  0
 31 48  1  0  0  0  0
 32 49  1  0  0  0  0
 32 50  1  0  0  0  0
 32 51  1  0  0  0  0
 33 52  1  0  0  0  0
 33 53  1  0  0  0  0
 33 54  1  0  0  0  0
 34 55  1  0  0  0  0
 34 56  1  0  0  0  0
 34 57  1  0  0  0  0
 35 58  1  0  0  0  0
 35 59  1  0  0  0  0
 35 60  1  0  0  0  0
M  END
> <PUBCHEM_COMPOUND_CID>
127045057

> <PUBCHEM_CONFORMER_RMSD>
1

> <PUBCHEM_CONFORMER_DIVERSEORDER>
38
75
148
29
167
193
28
76
119
97
180
77
174
46
125
48
131
57
147
114
35
132
107
37
121
128
149
170
154
123
112
185
186
20
143
162
27
65
179
155
161
160
134
91
88
190
68
150
122
173
157
168
195
110
151
2
80
140
175
98
158
176
169
127
105
192
8
135
54
156
44
194
177
58
33
141
108
51
164
165
7
145
89
120
67
52
106
139
153
22
60
36
10
109
39
113
96
84
66
3
90
104
64
129
182
189
117
159
191
34
166
111
49
130
63
1
74
45
188
181
126
142
13
95
59
55
9
70
178
99
124
87
19
23
4
100
116
133
12
82
78
56
61
69
41
5
92
118
136
94
183
144
103
47
152
163
171
31
11
93
62
137
30
17
26
102
146
40
15
86
187
32
101
115
85
53
184
71
72
16
172
73
24
138
79
21
50
43
83
6
18
81
25
42
14

> <PUBCHEM_MMFF94_PARTIAL_CHARGES>
47
1 -0.36
10 0.41
11 0.31
12 -0.15
13 0.1
14 0.08
15 -0.15
16 0.08
17 -0.15
18 0.09
19 -0.15
2 -0.36
20 -0.15
21 -0.15
22 0.47
23 0.47
24 0.03
25 -0.14
26 -0.18
27 -0.15
28 0.08
29 -0.15
3 -0.36
30 0.08
31 -0.15
32 0.28
33 0.28
34 0.28
35 0.28
36 0.15
37 0.4
38 0.15
39 0.15
4 -0.36
40 0.15
41 0.15
42 0.15
43 0.15
44 0.15
45 0.15
46 0.15
47 0.15
48 0.15
5 -0.57
6 -0.6
7 -0.62
8 -0.62

> <PUBCHEM_EFFECTIVE_ROTOR_COUNT>
9

> <PUBCHEM_PHARMACOPHORE_FEATURES>
12
1 1 acceptor
1 2 acceptor
1 3 acceptor
1 4 acceptor
1 5 acceptor
1 6 donor
3 6 7 10 cation
3 7 8 23 cation
6 13 17 18 19 20 21 rings
6 24 27 28 29 30 31 rings
6 7 8 9 10 11 23 rings
6 9 11 12 14 15 16 rings

> <PUBCHEM_HEAVY_ATOM_COUNT>
35

> <PUBCHEM_ATOM_DEF_STEREO_COUNT>
0

> <PUBCHEM_ATOM_UDEF_STEREO_COUNT>
0

> <PUBCHEM_BOND_DEF_STEREO_COUNT>
1

> <PUBCHEM_BOND_UDEF_STEREO_COUNT>
0

> <PUBCHEM_ISOTOPIC_ATOM_COUNT>
0

> <PUBCHEM_COMPONENT_COUNT>
1

> <PUBCHEM_CACTVS_TAUTO_COUNT>
8

> <PUBCHEM_CONFORMER_ID>
07928DC100000026

> <PUBCHEM_MMFF94_ENERGY>
163.7048

> <PUBCHEM_FEATURE_SELFOVERLAP>
61.079

> <PUBCHEM_SHAPE_FINGERPRINT>
10190206 1 17561373880367904200
10842051 180 18335973221584017933
10920273 25 18334022704355295524
11181472 205 18262236725447352628
11410812 94 18129941304048427628
11475781 23 17775279487170457122
1200032 147 18113338613580634674
12061779 8 17823431550836933588
12342043 65 13479952565079839098
12522641 68 18272930548931282495
12975358 362 17968660390000600541
13627167 48 17703240507610337643
14294032 229 18334288739489651300
14340393 91 14548741660400510875
14664723 55 18410304604929721188
14840074 17 17894915131053744493
15183329 4 15985112924246237734
15198563 99 17699267066289443479
15513586 35 17243587678548209247
16728433 281 17988652895273636209
16990350 14 18196933262695508971
16992752 21 18129368454739462511
1768 23 17967253126184296494
19304671 126 16988551429331339753
21033650 10 18270118062389991274
21781055 127 18410000049806162146
21792965 68 18338240487743630440
23569914 152 17057542335474708694
3178227 256 15140950804286497932
3918712 181 18411133632613443989
397830 11 12396297092892676758
3986486 107 16845297120232148081
4173938 306 16343692262884812302
42767 23 12535350077910097673
42767 28 17275383196991823915
437795 70 17703515466647107656
44249763 50 17130402761720990987
44802255 64 17489309749675166871
44880568 143 17843959471555478720
4516262 110 18335410250071442199
54583773 228 18341603795688184781
563151 74 16370720444115897824
5776283 40 18343298206312817921
5911458 16 18187365462797566780
59682541 52 15841834443191527734
6036956 94 18053943945269625793
9849439 229 18408884023206446323

> <PUBCHEM_SHAPE_MULTIPOLES>
675.99
26.63
4.49
2.29
18.25
3.16
-0.62
-33.03
-3.62
4.28
0.58
-5.49
-0.49
-3.87

> <PUBCHEM_SHAPE_SELFOVERLAP>
1475.053

> <PUBCHEM_SHAPE_VOLUME>
366.6

> <PUBCHEM_COORDINATE_TYPE>
2
5
10

$$$$