10248451
  -OEChem-03242010103D

 51 53  0     0  0  0  0  0  0999 V2000
    1.8451   -0.6471    0.2343 O   0  0  0  0  0  0  0  0  0  0  0  0
   -3.4669    0.8315    0.5695 O   0  0  0  0  0  0  0  0  0  0  0  0
   -2.6864   -1.7755    1.0551 O   0  0  0  0  0  0  0  0  0  0  0  0
   -1.6148    2.7250   -0.0886 O   0  0  0  0  0  0  0  0  0  0  0  0
    0.9072    3.2459   -0.5169 O   0  0  0  0  0  0  0  0  0  0  0  0
    0.1491    1.0830    0.0590 C   0  0  0  0  0  0  0  0  0  0  0  0
    0.5392   -0.2323    0.3047 C   0  0  0  0  0  0  0  0  0  0  0  0
   -2.1498    0.4870    0.4810 C   0  0  0  0  0  0  0  0  0  0  0  0
   -1.1962    1.4490    0.1459 C   0  0  0  0  0  0  0  0  0  0  0  0
   -1.7611   -0.8305    0.7275 C   0  0  0  0  0  0  0  0  0  0  0  0
   -0.4164   -1.1919    0.6398 C   0  0  0  0  0  0  0  0  0  0  0  0
    1.1776    2.0744   -0.2912 C   0  0  0  0  0  0  0  0  0  0  0  0
    2.8160    0.2831   -0.1044 C   0  0  0  0  0  0  0  0  0  0  0  0
    2.5668    1.5780   -0.3571 C   0  0  0  0  0  0  0  0  0  0  0  0
   -4.2457    0.7187   -0.6188 C   0  0  0  0  0  0  0  0  0  0  0  0
   -2.8000   -2.9000    0.1853 C   0  0  0  0  0  0  0  0  0  0  0  0
    4.1856   -0.2673   -0.1460 C   0  0  0  0  0  0  0  0  0  0  0  0
   -5.6682    1.1656   -0.3186 C   0  0  0  0  0  0  0  0  0  0  0  0
   -4.2385   -3.3937    0.2056 C   0  0  0  0  0  0  0  0  0  0  0  0
    5.2782    0.5439    0.1708 C   0  0  0  0  0  0  0  0  0  0  0  0
    4.3955   -1.6020   -0.5023 C   0  0  0  0  0  0  0  0  0  0  0  0
   -6.5636    1.0581   -1.5398 C   0  0  0  0  0  0  0  0  0  0  0  0
   -4.4329   -4.6042   -0.6898 C   0  0  0  0  0  0  0  0  0  0  0  0
   -1.6588    3.6075    1.0303 C   0  0  0  0  0  0  0  0  0  0  0  0
    6.5720    0.0242    0.1313 C   0  0  0  0  0  0  0  0  0  0  0  0
    5.6894   -2.1217   -0.5417 C   0  0  0  0  0  0  0  0  0  0  0  0
    6.7776   -1.3085   -0.2248 C   0  0  0  0  0  0  0  0  0  0  0  0
   -0.1062   -2.2147    0.8386 H   0  0  0  0  0  0  0  0  0  0  0  0
    3.3259    2.3002   -0.6336 H   0  0  0  0  0  0  0  0  0  0  0  0
   -4.2417   -0.3201   -0.9675 H   0  0  0  0  0  0  0  0  0  0  0  0
   -3.8132    1.3502   -1.4043 H   0  0  0  0  0  0  0  0  0  0  0  0
   -2.1236   -3.6867    0.5387 H   0  0  0  0  0  0  0  0  0  0  0  0
   -2.5189   -2.6302   -0.8410 H   0  0  0  0  0  0  0  0  0  0  0  0
   -6.0788    0.5595    0.4978 H   0  0  0  0  0  0  0  0  0  0  0  0
   -5.6594    2.1990    0.0478 H   0  0  0  0  0  0  0  0  0  0  0  0
   -4.9115   -2.5873   -0.1083 H   0  0  0  0  0  0  0  0  0  0  0  0
   -4.5270   -3.6421    1.2340 H   0  0  0  0  0  0  0  0  0  0  0  0
    5.1587    1.5805    0.4744 H   0  0  0  0  0  0  0  0  0  0  0  0
    3.5667   -2.2560   -0.7621 H   0  0  0  0  0  0  0  0  0  0  0  0
   -6.1913    1.6858   -2.3558 H   0  0  0  0  0  0  0  0  0  0  0  0
   -7.5790    1.3853   -1.2957 H   0  0  0  0  0  0  0  0  0  0  0  0
   -6.6165    0.0248   -1.8974 H   0  0  0  0  0  0  0  0  0  0  0  0
   -3.7974   -5.4358   -0.3690 H   0  0  0  0  0  0  0  0  0  0  0  0
   -5.4742   -4.9391   -0.6541 H   0  0  0  0  0  0  0  0  0  0  0  0
   -4.1885   -4.3659   -1.7299 H   0  0  0  0  0  0  0  0  0  0  0  0
   -2.5213    3.3681    1.6599 H   0  0  0  0  0  0  0  0  0  0  0  0
   -1.7728    4.6288    0.6569 H   0  0  0  0  0  0  0  0  0  0  0  0
   -0.7413    3.5518    1.6251 H   0  0  0  0  0  0  0  0  0  0  0  0
    7.4192    0.6555    0.3828 H   0  0  0  0  0  0  0  0  0  0  0  0
    5.8500   -3.1590   -0.8206 H   0  0  0  0  0  0  0  0  0  0  0  0
    7.7850   -1.7135   -0.2547 H   0  0  0  0  0  0  0  0  0  0  0  0
  1  7  1  0  0  0  0
  1 13  1  0  0  0  0
  2  8  1  0  0  0  0
  2 15  1  0  0  0  0
  3 10  1  0  0  0  0
  3 16  1  0  0  0  0
  4  9  1  0  0  0  0
  4 24  1  0  0  0  0
  5 12  2  0  0  0  0
  6  7  1  0  0  0  0
  6  9  2  0  0  0  0
  6 12  1  0  0  0  0
  7 11  2  0  0  0  0
  8  9  1  0  0  0  0
  8 10  2  0  0  0  0
 10 11  1  0  0  0  0
 11 28  1  0  0  0  0
 12 14  1  0  0  0  0
 13 14  2  0  0  0  0
 13 17  1  0  0  0  0
 14 29  1  0  0  0  0
 15 18  1  0  0  0  0
 15 30  1  0  0  0  0
 15 31  1  0  0  0  0
 16 19  1  0  0  0  0
 16 32  1  0  0  0  0
 16 33  1  0  0  0  0
 17 20  2  0  0  0  0
 17 21  1  0  0  0  0
 18 22  1  0  0  0  0
 18 34  1  0  0  0  0
 18 35  1  0  0  0  0
 19 23  1  0  0  0  0
 19 36  1  0  0  0  0
 19 37  1  0  0  0  0
 20 25  1  0  0  0  0
 20 38  1  0  0  0  0
 21 26  2  0  0  0  0
 21 39  1  0  0  0  0
 22 40  1  0  0  0  0
 22 41  1  0  0  0  0
 22 42  1  0  0  0  0
 23 43  1  0  0  0  0
 23 44  1  0  0  0  0
 23 45  1  0  0  0  0
 24 46  1  0  0  0  0
 24 47  1  0  0  0  0
 24 48  1  0  0  0  0
 25 27  2  0  0  0  0
 25 49  1  0  0  0  0
 26 27  1  0  0  0  0
 26 50  1  0  0  0  0
 27 51  1  0  0  0  0
M  END
> <PUBCHEM_COMPOUND_CID>
10248451

> <PUBCHEM_CONFORMER_RMSD>
1

> <PUBCHEM_CONFORMER_DIVERSEORDER>
1
14
7
12
11
8
2
4
5
13
6
9
10
3

> <PUBCHEM_MMFF94_PARTIAL_CHARGES>
30
1 -0.16
10 0.08
11 -0.15
12 0.47
13 0.05
14 -0.14
15 0.28
16 0.28
17 0.03
2 -0.36
20 -0.15
21 -0.15
24 0.28
25 -0.15
26 -0.15
27 -0.15
28 0.15
29 0.15
3 -0.36
38 0.15
39 0.15
4 -0.36
49 0.15
5 -0.57
50 0.15
51 0.15
6 0.09
7 0.08
8 0.08
9 0.08

> <PUBCHEM_EFFECTIVE_ROTOR_COUNT>
8

> <PUBCHEM_PHARMACOPHORE_FEATURES>
10
1 1 acceptor
1 2 acceptor
1 22 hydrophobe
1 23 hydrophobe
1 3 acceptor
1 4 acceptor
1 5 acceptor
6 1 6 7 12 13 14 rings
6 17 20 21 25 26 27 rings
6 6 7 8 9 10 11 rings

> <PUBCHEM_HEAVY_ATOM_COUNT>
27

> <PUBCHEM_ATOM_DEF_STEREO_COUNT>
0

> <PUBCHEM_ATOM_UDEF_STEREO_COUNT>
0

> <PUBCHEM_BOND_DEF_STEREO_COUNT>
0

> <PUBCHEM_BOND_UDEF_STEREO_COUNT>
0

> <PUBCHEM_ISOTOPIC_ATOM_COUNT>
0

> <PUBCHEM_COMPONENT_COUNT>
1

> <PUBCHEM_CACTVS_TAUTO_COUNT>
1

> <PUBCHEM_CONFORMER_ID>
009C610300000001

> <PUBCHEM_MMFF94_ENERGY>
96.2687

> <PUBCHEM_FEATURE_SELFOVERLAP>
50.797

> <PUBCHEM_SHAPE_FINGERPRINT>
10050765 1 18265333000622916893
10411042 1 18267026235323114794
10835480 77 18410852205192402088
10906281 52 18269856249625615229
11578080 2 17558538360793211785
12011746 2 18261672575773651725
12555020 224 18409445865368982925
12788726 201 18269828719096115009
13140716 1 18338249274513527769
13540713 4 18194672890443566681
13540713 5 18122085322905420609
14347332 77 18267026235692490255
14790565 3 17833837066535797929
15042514 8 18412268358645885811
15196674 1 18335987570705535664
15361156 5 18187380847755192020
17492 89 18194966468031812851
19141452 34 18411990139043116176
20775438 99 17551191445834817727
21236236 1 18268995280312810040
21267235 1 18335994081406659448
21307412 95 18341340980709371022
21703447 108 18121769801474612922
22311459 1 18337673022835348249
23402539 116 18409446999055946950
23559900 14 18411975897016543480
23576562 1 17895472631094672133
23622692 118 18267867361834323383
249057 3 18335417972474887453
283562 15 18196652896137287593
3004659 81 17967819332350428404
3009799 131 18260825964758037172
335352 9 18335422352872336181
44062 13 18408324414853528351
484989 97 18261674883210098963
5104073 3 18340205177730952976
559249 180 18334857225244122475
59554788 191 18339083799396251815
59755656 215 18336264527302934446
59755656 520 18187076231431731495
7970288 3 18196935702116510070
9709674 26 18198070171104632662

> <PUBCHEM_SHAPE_MULTIPOLES>
526.3
15.14
4.3
0.91
10.67
2.49
0.07
7.04
4.12
-6.29
0.12
-0.85
-0.09
0.54

> <PUBCHEM_SHAPE_SELFOVERLAP>
1124.907

> <PUBCHEM_SHAPE_VOLUME>
291.8

> <PUBCHEM_COORDINATE_TYPE>
2
5
10

$$$$