28
 OpenBabel03292022263D

196196  0  0  1  0  0  0  0  0999 V2000
   11.9089    7.0755   -7.2234 C   0  0  0  0  0  0  0  0  0  0  0  0
   12.8858    7.6639   -8.2267 C   0  0  0  0  0  0  0  0  0  0  0  0
   14.0668    8.2181   -7.8775 C   0  0  0  0  0  0  0  0  0  0  0  0
   15.1656    8.9824   -8.6635 C   0  0  0  0  0  0  0  0  0  0  0  0
   16.0885    8.3948   -9.8340 C   0  0  3  0  0  0  0  0  0  0  0  0
   15.1187    8.0861  -10.9879 C   0  0  0  0  0  0  0  0  0  0  0  0
   17.3915    9.3519  -10.3169 C   0  0  3  0  0  0  0  0  0  0  0  0
   17.0756   10.6864   -9.8677 O   0  0  0  0  0  0  0  0  0  0  0  0
   19.0204    9.0186   -9.8144 C   0  0  3  0  0  0  0  0  0  0  0  0
   18.8520    7.7203   -8.7686 C   0  0  0  0  0  0  0  0  0  0  0  0
   19.3161    6.6102   -8.9818 O   0  0  0  0  0  0  0  0  0  0  0  0
   17.9930    7.9000   -7.6706 N   0  0  0  0  0  0  0  0  0  0  0  0
   17.2360    6.9053   -6.7826 C   0  0  3  0  0  0  0  0  0  0  0  0
   16.2841    5.8634   -7.4437 C   0  0  0  0  0  0  0  0  0  0  0  0
   15.2788    5.1582   -6.5073 C   0  0  0  0  0  0  0  0  0  0  0  0
   17.8774    6.3609   -5.4691 C   0  0  0  0  0  0  0  0  0  0  0  0
   17.9910    7.1028   -4.4888 O   0  0  0  0  0  0  0  0  0  0  0  0
   18.1743    5.0068   -5.3995 N   0  0  0  0  0  0  0  0  0  0  0  0
   18.0699    4.3223   -4.1146 C   0  0  0  0  0  0  0  0  0  0  0  0
   18.9097    4.3255   -6.4704 C   0  0  0  0  0  0  0  0  0  0  0  0
   18.1177    3.2093   -7.1945 C   0  0  0  0  0  0  0  0  0  0  0  0
   17.4174    2.4260   -6.5429 O   0  0  0  0  0  0  0  0  0  0  0  0
   18.1072    3.1944   -8.5926 N   0  0  0  0  0  0  0  0  0  0  0  0
   16.9289    2.6152   -9.2375 C   0  0  0  0  0  0  0  0  0  0  0  0
   19.2468    3.5375   -9.5055 C   0  0  3  0  0  0  0  0  0  0  0  0
   20.1417    2.2351   -9.6698 C   0  0  0  0  0  0  0  0  0  0  0  0
   21.2201    1.7738   -8.6532 C   0  0  0  0  0  0  0  0  0  0  0  0
   21.4511    2.5893   -7.3948 C   0  0  0  0  0  0  0  0  0  0  0  0
   20.9719    0.3153   -8.2467 C   0  0  0  0  0  0  0  0  0  0  0  0
   18.7985    3.9262  -10.9537 C   0  0  0  0  0  0  0  0  0  0  0  0
   18.4858    3.0713  -11.7904 O   0  0  0  0  0  0  0  0  0  0  0  0
   18.7452    5.2897  -11.2682 N   0  0  0  0  0  0  0  0  0  0  0  0
   19.4295    5.6613  -12.5455 C   0  0  3  0  0  0  0  0  0  0  0  0
   18.5860    6.5157  -13.5711 C   0  0  0  0  0  0  0  0  0  0  0  0
   17.2094    5.8782  -13.8431 C   0  0  0  0  0  0  0  0  0  0  0  0
   18.3111    8.0042  -13.3677 C   0  0  0  0  0  0  0  0  0  0  0  0
   20.8987    5.9721  -11.9985 C   0  0  0  0  0  0  0  0  0  0  0  0
   21.0364    6.1476  -10.7762 O   0  0  0  0  0  0  0  0  0  0  0  0
   22.0521    5.9411  -12.7693 N   0  0  0  0  0  0  0  0  0  0  0  0
   22.0403    5.8940  -14.2162 C   0  0  0  0  0  0  0  0  0  0  0  0
   23.3507    6.0385  -12.0328 C   0  0  3  0  0  0  0  0  0  0  0  0
   23.8399    4.6097  -11.7012 C   0  0  0  0  0  0  0  0  0  0  0  0
   25.1687    4.5086  -10.9262 C   0  0  0  0  0  0  0  0  0  0  0  0
   25.0713    5.0205   -9.4849 C   0  0  0  0  0  0  0  0  0  0  0  0
   25.6605    3.0623  -10.9204 C   0  0  0  0  0  0  0  0  0  0  0  0
   24.5218    6.9256  -12.5571 C   0  0  0  0  0  0  0  0  0  0  0  0
   24.8954    6.9888  -13.7263 O   0  0  0  0  0  0  0  0  0  0  0  0
   25.1870    7.6013  -11.5396 N   0  0  0  0  0  0  0  0  0  0  0  0
   26.2468    8.5591  -11.7535 C   0  0  3  0  0  0  0  0  0  0  0  0
   26.1910    9.6493  -10.6812 C   0  0  0  0  0  0  0  0  0  0  0  0
   27.6936    8.0581  -11.7456 C   0  0  0  0  0  0  0  0  0  0  0  0
   28.1921    7.4906  -10.7801 O   0  0  0  0  0  0  0  0  0  0  0  0
   28.3966    8.4671  -12.8731 N   0  0  0  0  0  0  0  0  0  0  0  0
   29.8417    8.3874  -12.9130 C   0  0  3  0  0  0  0  0  0  0  0  0
   30.2803    6.9094  -12.9753 C   0  0  0  0  0  0  0  0  0  0  0  0
   30.5382    9.1600  -14.0705 C   0  0  0  0  0  0  0  0  0  0  0  0
   31.4119    8.5442  -14.7063 O   0  0  0  0  0  0  0  0  0  0  0  0
   30.4154   10.5457  -14.2698 N   0  0  0  0  0  0  0  0  0  0  0  0
   31.6572   11.1122  -14.8378 C   0  0  0  0  0  0  0  0  0  0  0  0
   29.1362   11.4488  -14.3073 C   0  0  3  0  0  0  0  0  0  0  0  0
   29.6435   12.9325  -14.0674 C   0  0  0  0  0  0  0  0  0  0  0  0
   28.7478   14.1888  -13.9927 C   0  0  0  0  0  0  0  0  0  0  0  0
   29.6711   15.4181  -13.8432 C   0  0  0  0  0  0  0  0  0  0  0  0
   27.8678   14.4533  -15.2082 C   0  0  0  0  0  0  0  0  0  0  0  0
   28.3359   11.5054  -15.6929 C   0  0  0  0  0  0  0  0  0  0  0  0
   28.9629   11.9300  -16.6963 O   0  0  0  0  0  0  0  0  0  0  0  0
   26.9410   11.2378  -15.7638 N   0  0  0  0  0  0  0  0  0  0  0  0
   26.2753   11.7736  -16.9598 C   0  0  0  0  0  0  0  0  0  0  0  0
   26.3927    9.9160  -15.3250 C   0  0  3  0  0  0  0  0  0  0  0  0
   26.8424    8.7829  -16.4370 C   0  0  0  0  0  0  0  0  0  0  0  0
   27.9819    8.9931  -17.5486 C   0  0  0  0  0  0  0  0  0  0  0  0
   29.4398    8.7909  -17.1240 C   0  0  0  0  0  0  0  0  0  0  0  0
   27.8070    8.0611  -18.7650 C   0  0  0  0  0  0  0  0  0  0  0  0
   24.6733    9.7372  -14.8256 C   0  0  0  0  0  0  0  0  0  0  0  0
   23.9231    9.1115  -15.5872 O   0  0  0  0  0  0  0  0  0  0  0  0
   24.1091   10.2899  -13.5459 N   0  0  0  0  0  0  0  0  0  0  0  0
   24.8779   11.4165  -13.0568 C   0  0  0  0  0  0  0  0  0  0  0  0
   22.4416   10.1604  -13.0347 C   0  0  3  0  0  0  0  0  0  0  0  0
   21.6362   11.2924  -13.7829 C   0  0  0  0  0  0  0  0  0  0  0  0
   22.1295   12.7146  -13.5307 C   0  0  0  0  0  0  0  0  0  0  0  0
   21.5490   11.0415  -15.2964 C   0  0  0  0  0  0  0  0  0  0  0  0
   21.1351    9.2997  -11.9989 C   0  0  0  0  0  0  0  0  0  0  0  0
   20.6773    8.3277  -12.6088 O   0  0  0  0  0  0  0  0  0  0  0  0
   20.4746    9.6221  -10.7049 N   0  0  0  0  0  0  0  0  0  0  0  0
   21.4517   10.1313   -9.7749 C   0  0  0  0  0  0  0  0  0  0  0  0
   10.9870    7.6693   -7.1858 H   0  0  0  0  0  0  0  0  0  0  0  0
   12.3120    7.0427   -6.2042 H   0  0  0  0  0  0  0  0  0  0  0  0
   11.6276    6.0503   -7.4934 H   0  0  0  0  0  0  0  0  0  0  0  0
   12.5482    7.6346   -9.2582 H   0  0  0  0  0  0  0  0  0  0  0  0
   14.2523    8.2201   -6.7994 H   0  0  0  0  0  0  0  0  0  0  0  0
   15.8407    9.3270   -7.8737 H   0  0  0  0  0  0  0  0  0  0  0  0
   14.6721    9.8890   -9.0250 H   0  0  0  0  0  0  0  0  0  0  0  0
   16.4959    7.4160   -9.5911 H   0  0  0  0  0  0  0  0  0  0  0  0
   14.6310    8.9891  -11.3640 H   0  0  0  0  0  0  0  0  0  0  0  0
   14.3341    7.3909  -10.6660 H   0  0  0  0  0  0  0  0  0  0  0  0
   15.6334    7.5923  -11.8076 H   0  0  0  0  0  0  0  0  0  0  0  0
   17.3626    9.4110  -11.3995 H   0  0  0  0  0  0  0  0  0  0  0  0
   16.2070   10.9122  -10.2505 H   0  0  0  0  0  0  0  0  0  0  0  0
   19.0998    9.8032   -9.0442 H   0  0  0  0  0  0  0  0  0  0  0  0
   17.8256    8.8631   -7.4061 H   0  0  0  0  0  0  0  0  0  0  0  0
   16.5023    7.5982   -6.3386 H   0  0  0  0  0  0  0  0  0  0  0  0
   16.8693    5.1338   -7.9800 H   0  0  0  0  0  0  0  0  0  0  0  0
   15.6716    6.3019   -8.2228 H   0  0  0  0  0  0  0  0  0  0  0  0
   15.6774    4.8778   -5.5315 H   0  0  0  0  0  0  0  0  0  0  0  0
   14.9046    4.2394   -6.9748 H   0  0  0  0  0  0  0  0  0  0  0  0
   14.4087    5.7901   -6.3115 H   0  0  0  0  0  0  0  0  0  0  0  0
   17.3488    4.8321   -3.4659 H   0  0  0  0  0  0  0  0  0  0  0  0
   19.0455    4.3031   -3.6248 H   0  0  0  0  0  0  0  0  0  0  0  0
   17.7140    3.2981   -4.2626 H   0  0  0  0  0  0  0  0  0  0  0  0
   19.2610    5.0763   -7.1704 H   0  0  0  0  0  0  0  0  0  0  0  0
   19.7775    3.8992   -5.9730 H   0  0  0  0  0  0  0  0  0  0  0  0
   16.4532    3.4007   -9.8371 H   0  0  0  0  0  0  0  0  0  0  0  0
   16.1844    2.2726   -8.5135 H   0  0  0  0  0  0  0  0  0  0  0  0
   17.2136    1.7795   -9.8771 H   0  0  0  0  0  0  0  0  0  0  0  0
   19.8820    4.3000   -9.0424 H   0  0  0  0  0  0  0  0  0  0  0  0
   20.6922    2.3639  -10.6122 H   0  0  0  0  0  0  0  0  0  0  0  0
   19.4683    1.3901   -9.8697 H   0  0  0  0  0  0  0  0  0  0  0  0
   22.1742    1.7910   -9.1956 H   0  0  0  0  0  0  0  0  0  0  0  0
   20.7293    2.3090   -6.6253 H   0  0  0  0  0  0  0  0  0  0  0  0
   21.4343    3.6654   -7.5783 H   0  0  0  0  0  0  0  0  0  0  0  0
   22.4346    2.3576   -6.9681 H   0  0  0  0  0  0  0  0  0  0  0  0
   20.0231    0.2135   -7.7071 H   0  0  0  0  0  0  0  0  0  0  0  0
   21.7713   -0.0495   -7.5925 H   0  0  0  0  0  0  0  0  0  0  0  0
   20.9365   -0.3352   -9.1262 H   0  0  0  0  0  0  0  0  0  0  0  0
   19.0800    5.8844  -10.5100 H   0  0  0  0  0  0  0  0  0  0  0  0
   19.5945    4.7085  -13.0881 H   0  0  0  0  0  0  0  0  0  0  0  0
   19.1431    6.4606  -14.5104 H   0  0  0  0  0  0  0  0  0  0  0  0
   16.4124    6.3537  -13.2606 H   0  0  0  0  0  0  0  0  0  0  0  0
   17.1776    4.8126  -13.6216 H   0  0  0  0  0  0  0  0  0  0  0  0
   16.9430    6.0259  -14.8963 H   0  0  0  0  0  0  0  0  0  0  0  0
   18.5351    8.2865  -12.3505 H   0  0  0  0  0  0  0  0  0  0  0  0
   17.2766    8.3137  -13.5666 H   0  0  0  0  0  0  0  0  0  0  0  0
   18.9061    8.6152  -14.0595 H   0  0  0  0  0  0  0  0  0  0  0  0
   21.1673    5.3453  -14.5741 H   0  0  0  0  0  0  0  0  0  0  0  0
   22.9378    5.3907  -14.5809 H   0  0  0  0  0  0  0  0  0  0  0  0
   21.9947    6.9159  -14.6009 H   0  0  0  0  0  0  0  0  0  0  0  0
   23.1152    6.5120  -11.0738 H   0  0  0  0  0  0  0  0  0  0  0  0
   23.9381    4.0610  -12.6470 H   0  0  0  0  0  0  0  0  0  0  0  0
   23.0568    4.0908  -11.1316 H   0  0  0  0  0  0  0  0  0  0  0  0
   25.9321    5.0893  -11.4560 H   0  0  0  0  0  0  0  0  0  0  0  0
   24.7036    4.2470   -8.8038 H   0  0  0  0  0  0  0  0  0  0  0  0
   24.4048    5.8787   -9.3755 H   0  0  0  0  0  0  0  0  0  0  0  0
   26.0633    5.3296   -9.1352 H   0  0  0  0  0  0  0  0  0  0  0  0
   24.9797    2.4146  -10.3585 H   0  0  0  0  0  0  0  0  0  0  0  0
   26.6531    2.9993  -10.4631 H   0  0  0  0  0  0  0  0  0  0  0  0
   25.7366    2.6735  -11.9411 H   0  0  0  0  0  0  0  0  0  0  0  0
   24.9881    7.3608  -10.5718 H   0  0  0  0  0  0  0  0  0  0  0  0
   26.0687    8.9940  -12.7250 H   0  0  0  0  0  0  0  0  0  0  0  0
   26.9278   10.4363  -10.8856 H   0  0  0  0  0  0  0  0  0  0  0  0
   26.4183    9.2420   -9.6895 H   0  0  0  0  0  0  0  0  0  0  0  0
   25.1988   10.1040  -10.6231 H   0  0  0  0  0  0  0  0  0  0  0  0
   27.9473    8.1877  -13.7364 H   0  0  0  0  0  0  0  0  0  0  0  0
   30.2234    8.8176  -11.9785 H   0  0  0  0  0  0  0  0  0  0  0  0
   29.9332    6.4425  -13.9055 H   0  0  0  0  0  0  0  0  0  0  0  0
   29.8836    6.3171  -12.1467 H   0  0  0  0  0  0  0  0  0  0  0  0
   31.3718    6.8159  -12.9425 H   0  0  0  0  0  0  0  0  0  0  0  0
   32.5201   10.4470  -14.7097 H   0  0  0  0  0  0  0  0  0  0  0  0
   31.9478   12.0129  -14.2901 H   0  0  0  0  0  0  0  0  0  0  0  0
   31.5284   11.3190  -15.9013 H   0  0  0  0  0  0  0  0  0  0  0  0
   28.4646   11.1283  -13.5144 H   0  0  0  0  0  0  0  0  0  0  0  0
   30.3502   13.1715  -14.8764 H   0  0  0  0  0  0  0  0  0  0  0  0
   30.2342   12.9134  -13.1407 H   0  0  0  0  0  0  0  0  0  0  0  0
   28.1123   14.1201  -13.1035 H   0  0  0  0  0  0  0  0  0  0  0  0
   30.3195   15.5338  -14.7228 H   0  0  0  0  0  0  0  0  0  0  0  0
   30.3154   15.3299  -12.9637 H   0  0  0  0  0  0  0  0  0  0  0  0
   29.0891   16.3405  -13.7450 H   0  0  0  0  0  0  0  0  0  0  0  0
   28.4171   14.3330  -16.1489 H   0  0  0  0  0  0  0  0  0  0  0  0
   27.4685   15.4734  -15.2042 H   0  0  0  0  0  0  0  0  0  0  0  0
   27.0051   13.7925  -15.1909 H   0  0  0  0  0  0  0  0  0  0  0  0
   25.3475   11.2416  -17.1676 H   0  0  0  0  0  0  0  0  0  0  0  0
   26.9150   11.7263  -17.8535 H   0  0  0  0  0  0  0  0  0  0  0  0
   26.0498   12.8282  -16.8026 H   0  0  0  0  0  0  0  0  0  0  0  0
   26.9559    9.6869  -14.4327 H   0  0  0  0  0  0  0  0  0  0  0  0
   27.0948    7.8690  -15.8843 H   0  0  0  0  0  0  0  0  0  0  0  0
   25.9341    8.5449  -17.0007 H   0  0  0  0  0  0  0  0  0  0  0  0
   27.9083    9.9924  -17.9720 H   0  0  0  0  0  0  0  0  0  0  0  0
   29.6161    7.8055  -16.6849 H   0  0  0  0  0  0  0  0  0  0  0  0
   29.7622    9.5550  -16.4360 H   0  0  0  0  0  0  0  0  0  0  0  0
   30.1221    8.8891  -17.9829 H   0  0  0  0  0  0  0  0  0  0  0  0
   28.0048    7.0164  -18.5054 H   0  0  0  0  0  0  0  0  0  0  0  0
   28.5246    8.3349  -19.5556 H   0  0  0  0  0  0  0  0  0  0  0  0
   26.8108    8.1479  -19.2006 H   0  0  0  0  0  0  0  0  0  0  0  0
   24.4921   11.7556  -12.0967 H   0  0  0  0  0  0  0  0  0  0  0  0
   24.8578   12.2212  -13.7961 H   0  0  0  0  0  0  0  0  0  0  0  0
   25.9320   11.1513  -12.9525 H   0  0  0  0  0  0  0  0  0  0  0  0
   22.3606    9.3051  -13.7279 H   0  0  0  0  0  0  0  0  0  0  0  0
   20.6075   11.2548  -13.4069 H   0  0  0  0  0  0  0  0  0  0  0  0
   21.3401   13.4341  -13.7715 H   0  0  0  0  0  0  0  0  0  0  0  0
   22.9724   12.9765  -14.1772 H   0  0  0  0  0  0  0  0  0  0  0  0
   22.4148   12.8664  -12.4866 H   0  0  0  0  0  0  0  0  0  0  0  0
   22.5059   11.2240  -15.7960 H   0  0  0  0  0  0  0  0  0  0  0  0
   20.8151   11.7103  -15.7560 H   0  0  0  0  0  0  0  0  0  0  0  0
   21.2380   10.0135  -15.5121 H   0  0  0  0  0  0  0  0  0  0  0  0
   22.3281   10.5404  -10.2822 H   0  0  0  0  0  0  0  0  0  0  0  0
   21.7719    9.2949   -9.1437 H   0  0  0  0  0  0  0  0  0  0  0  0
   20.9946   10.9022   -9.1513 H   0  0  0  0  0  0  0  0  0  0  0  0
  1  2  1  0  0  0  0
  1 86  1  0  0  0  0
  1 87  1  0  0  0  0
  1 88  1  0  0  0  0
  2  3  2  0  0  0  0
  2 89  1  0  0  0  0
  3  4  1  0  0  0  0
  3 90  1  0  0  0  0
  4  5  1  0  0  0  0
  4 91  1  0  0  0  0
  4 92  1  0  0  0  0
  5  6  1  0  0  0  0
  5  7  1  0  0  0  0
  5 93  1  0  0  0  0
  6 94  1  0  0  0  0
  6 95  1  0  0  0  0
  6 96  1  0  0  0  0
  7  8  1  0  0  0  0
  7  9  1  0  0  0  0
  7 97  1  0  0  0  0
  8 98  1  0  0  0  0
  9 10  1  0  0  0  0
  9 84  1  0  0  0  0
  9 99  1  0  0  0  0
 10 11  2  0  0  0  0
 10 12  1  0  0  0  0
 12 13  1  0  0  0  0
 12100  1  0  0  0  0
 13 14  1  0  0  0  0
 13 16  1  0  0  0  0
 13101  1  0  0  0  0
 14 15  1  0  0  0  0
 14102  1  0  0  0  0
 14103  1  0  0  0  0
 15104  1  0  0  0  0
 15105  1  0  0  0  0
 15106  1  0  0  0  0
 16 17  2  0  0  0  0
 16 18  1  0  0  0  0
 18 19  1  0  0  0  0
 18 20  1  0  0  0  0
 19107  1  0  0  0  0
 19108  1  0  0  0  0
 19109  1  0  0  0  0
 20 21  1  0  0  0  0
 20110  1  0  0  0  0
 20111  1  0  0  0  0
 21 22  2  0  0  0  0
 21 23  1  0  0  0  0
 23 24  1  0  0  0  0
 23 25  1  0  0  0  0
 24112  1  0  0  0  0
 24113  1  0  0  0  0
 24114  1  0  0  0  0
 25 26  1  0  0  0  0
 25 30  1  0  0  0  0
 25115  1  0  0  0  0
 26 27  1  0  0  0  0
 26116  1  0  0  0  0
 26117  1  0  0  0  0
 27 28  1  0  0  0  0
 27 29  1  0  0  0  0
 27118  1  0  0  0  0
 28119  1  0  0  0  0
 28120  1  0  0  0  0
 28121  1  0  0  0  0
 29122  1  0  0  0  0
 29123  1  0  0  0  0
 29124  1  0  0  0  0
 30 31  2  0  0  0  0
 30 32  1  0  0  0  0
 32 33  1  0  0  0  0
 32125  1  0  0  0  0
 33 34  1  0  0  0  0
 33 37  1  0  0  0  0
 33126  1  0  0  0  0
 34 35  1  0  0  0  0
 34 36  1  0  0  0  0
 34127  1  0  0  0  0
 35128  1  0  0  0  0
 35129  1  0  0  0  0
 35130  1  0  0  0  0
 36131  1  0  0  0  0
 36132  1  0  0  0  0
 36133  1  0  0  0  0
 37 38  2  0  0  0  0
 37 39  1  0  0  0  0
 39 40  1  0  0  0  0
 39 41  1  0  0  0  0
 40134  1  0  0  0  0
 40135  1  0  0  0  0
 40136  1  0  0  0  0
 41 42  1  0  0  0  0
 41 46  1  0  0  0  0
 41137  1  0  0  0  0
 42 43  1  0  0  0  0
 42138  1  0  0  0  0
 42139  1  0  0  0  0
 43 44  1  0  0  0  0
 43 45  1  0  0  0  0
 43140  1  0  0  0  0
 44141  1  0  0  0  0
 44142  1  0  0  0  0
 44143  1  0  0  0  0
 45144  1  0  0  0  0
 45145  1  0  0  0  0
 45146  1  0  0  0  0
 46 47  2  0  0  0  0
 46 48  1  0  0  0  0
 48 49  1  0  0  0  0
 48147  1  0  0  0  0
 49 50  1  0  0  0  0
 49 51  1  0  0  0  0
 49148  1  0  0  0  0
 50149  1  0  0  0  0
 50150  1  0  0  0  0
 50151  1  0  0  0  0
 51 52  2  0  0  0  0
 51 53  1  0  0  0  0
 53 54  1  0  0  0  0
 53152  1  0  0  0  0
 54 55  1  0  0  0  0
 54 56  1  0  0  0  0
 54153  1  0  0  0  0
 55154  1  0  0  0  0
 55155  1  0  0  0  0
 55156  1  0  0  0  0
 56 57  2  0  0  0  0
 56 58  1  0  0  0  0
 58 59  1  0  0  0  0
 58 60  1  0  0  0  0
 59157  1  0  0  0  0
 59158  1  0  0  0  0
 59159  1  0  0  0  0
 60 61  1  0  0  0  0
 60 65  1  0  0  0  0
 60160  1  0  0  0  0
 61 62  1  0  0  0  0
 61161  1  0  0  0  0
 61162  1  0  0  0  0
 62 63  1  0  0  0  0
 62 64  1  0  0  0  0
 62163  1  0  0  0  0
 63164  1  0  0  0  0
 63165  1  0  0  0  0
 63166  1  0  0  0  0
 64167  1  0  0  0  0
 64168  1  0  0  0  0
 64169  1  0  0  0  0
 65 66  2  0  0  0  0
 65 67  1  0  0  0  0
 67 68  1  0  0  0  0
 67 69  1  0  0  0  0
 68170  1  0  0  0  0
 68171  1  0  0  0  0
 68172  1  0  0  0  0
 69 70  1  0  0  0  0
 69 74  1  0  0  0  0
 69173  1  0  0  0  0
 70 71  1  0  0  0  0
 70174  1  0  0  0  0
 70175  1  0  0  0  0
 71 72  1  0  0  0  0
 71 73  1  0  0  0  0
 71176  1  0  0  0  0
 72177  1  0  0  0  0
 72178  1  0  0  0  0
 72179  1  0  0  0  0
 73180  1  0  0  0  0
 73181  1  0  0  0  0
 73182  1  0  0  0  0
 74 75  2  0  0  0  0
 74 76  1  0  0  0  0
 76 77  1  0  0  0  0
 76 78  1  0  0  0  0
 77183  1  0  0  0  0
 77184  1  0  0  0  0
 77185  1  0  0  0  0
 78 79  1  0  0  0  0
 78 82  1  0  0  0  0
 78186  1  0  0  0  0
 79 80  1  0  0  0  0
 79 81  1  0  0  0  0
 79187  1  0  0  0  0
 80188  1  0  0  0  0
 80189  1  0  0  0  0
 80190  1  0  0  0  0
 81191  1  0  0  0  0
 81192  1  0  0  0  0
 81193  1  0  0  0  0
 82 83  2  0  0  0  0
 82 84  1  0  0  0  0
 84 85  1  0  0  0  0
 85194  1  0  0  0  0
 85195  1  0  0  0  0
 85196  1  0  0  0  0
M  END
>  <Energy>
677.008

$$$$