137655666
  -OEChem-03242010103D

 54 57  0     0  0  0  0  0  0999 V2000
   -3.8710    2.0274    0.8372 O   0  0  0  0  0  0  0  0  0  0  0  0
    3.6588   -1.0617    0.1674 N   0  0  0  0  0  0  0  0  0  0  0  0
   -0.5417    0.0583   -0.3568 N   0  0  0  0  0  0  0  0  0  0  0  0
    4.8000   -1.8526   -0.3140 C   0  0  0  0  0  0  0  0  0  0  0  0
    4.0690   -0.1251    1.2231 C   0  0  0  0  0  0  0  0  0  0  0  0
    5.9034   -0.9494   -0.8673 C   0  0  0  0  0  0  0  0  0  0  0  0
    5.1485    0.8345    0.7202 C   0  0  0  0  0  0  0  0  0  0  0  0
    2.5937   -1.9408    0.6493 C   0  0  0  0  0  0  0  0  0  0  0  0
    6.3504    0.0769    0.1673 C   0  0  0  0  0  0  0  0  0  0  0  0
    1.2524   -1.2092    0.7580 C   0  0  0  0  0  0  0  0  0  0  0  0
    0.7124   -0.6705   -0.5663 C   0  0  0  0  0  0  0  0  0  0  0  0
   -1.7400   -0.6796   -0.2232 C   0  0  0  0  0  0  0  0  0  0  0  0
   -0.5108    1.4713   -0.3437 C   0  0  0  0  0  0  0  0  0  0  0  0
   -2.9224   -0.0185    0.1625 C   0  0  0  0  0  0  0  0  0  0  0  0
   -1.6623    2.1868    0.0388 C   0  0  0  0  0  0  0  0  0  0  0  0
   -1.8374   -2.0613   -0.4707 C   0  0  0  0  0  0  0  0  0  0  0  0
   -2.8931    1.4436    0.3883 C   0  0  0  0  0  0  0  0  0  0  0  0
   -4.1331   -0.7060    0.3283 C   0  0  0  0  0  0  0  0  0  0  0  0
    0.6153    2.2309   -0.7109 C   0  0  0  0  0  0  0  0  0  0  0  0
   -3.0443   -2.7510   -0.3109 C   0  0  0  0  0  0  0  0  0  0  0  0
   -4.1891   -2.0753    0.0936 C   0  0  0  0  0  0  0  0  0  0  0  0
   -1.6796    3.5881    0.0875 C   0  0  0  0  0  0  0  0  0  0  0  0
   -0.6705   -2.9361   -0.8147 C   0  0  0  0  0  0  0  0  0  0  0  0
    0.6014    3.6294   -0.6682 C   0  0  0  0  0  0  0  0  0  0  0  0
   -0.5425    4.3068   -0.2639 C   0  0  0  0  0  0  0  0  0  0  0  0
   -5.4675   -2.8172    0.2891 C   0  0  0  0  0  0  0  0  0  0  0  0
    4.4428   -0.6658    2.1027 H   0  0  0  0  0  0  0  0  0  0  0  0
    3.2311    0.4949    1.5554 H   0  0  0  0  0  0  0  0  0  0  0  0
    5.2056   -2.4813    0.4897 H   0  0  0  0  0  0  0  0  0  0  0  0
    4.4767   -2.5220   -1.1205 H   0  0  0  0  0  0  0  0  0  0  0  0
    5.5385   -0.4304   -1.7629 H   0  0  0  0  0  0  0  0  0  0  0  0
    6.7598   -1.5586   -1.1777 H   0  0  0  0  0  0  0  0  0  0  0  0
    5.4703    1.4912    1.5365 H   0  0  0  0  0  0  0  0  0  0  0  0
    4.7304    1.4794   -0.0634 H   0  0  0  0  0  0  0  0  0  0  0  0
    2.8551   -2.3860    1.6180 H   0  0  0  0  0  0  0  0  0  0  0  0
    2.4538   -2.7767   -0.0480 H   0  0  0  0  0  0  0  0  0  0  0  0
    6.8708   -0.4327    0.9874 H   0  0  0  0  0  0  0  0  0  0  0  0
    7.0632    0.7776   -0.2811 H   0  0  0  0  0  0  0  0  0  0  0  0
    0.5373   -1.8404    1.2945 H   0  0  0  0  0  0  0  0  0  0  0  0
    1.3541   -0.3615    1.4479 H   0  0  0  0  0  0  0  0  0  0  0  0
    0.7275   -1.3327   -1.4232 H   0  0  0  0  0  0  0  0  0  0  0  0
    1.5014   -0.0108   -0.9222 H   0  0  0  0  0  0  0  0  0  0  0  0
   -5.0331   -0.1776    0.6332 H   0  0  0  0  0  0  0  0  0  0  0  0
    1.5517    1.8075   -1.0516 H   0  0  0  0  0  0  0  0  0  0  0  0
   -3.1045   -3.8233   -0.4843 H   0  0  0  0  0  0  0  0  0  0  0  0
   -2.5706    4.1326    0.3880 H   0  0  0  0  0  0  0  0  0  0  0  0
   -0.3059   -2.7601   -1.8300 H   0  0  0  0  0  0  0  0  0  0  0  0
    0.0832   -3.0925   -0.0571 H   0  0  0  0  0  0  0  0  0  0  0  0
   -1.0361   -3.9703   -0.9267 H   0  0  0  0  0  0  0  0  0  0  0  0
    1.4886    4.1878   -0.9540 H   0  0  0  0  0  0  0  0  0  0  0  0
   -0.5511    5.3920   -0.2313 H   0  0  0  0  0  0  0  0  0  0  0  0
   -5.9897   -2.9239   -0.6669 H   0  0  0  0  0  0  0  0  0  0  0  0
   -5.2826   -3.8140    0.7038 H   0  0  0  0  0  0  0  0  0  0  0  0
   -6.1287   -2.2968    0.9903 H   0  0  0  0  0  0  0  0  0  0  0  0
  1 17  2  0  0  0  0
  2  4  1  0  0  0  0
  2  5  1  0  0  0  0
  2  8  1  0  0  0  0
  3 11  1  0  0  0  0
  3 12  1  0  0  0  0
  3 13  1  0  0  0  0
  4  6  1  0  0  0  0
  4 29  1  0  0  0  0
  4 30  1  0  0  0  0
  5  7  1  0  0  0  0
  5 27  1  0  0  0  0
  5 28  1  0  0  0  0
  6  9  1  0  0  0  0
  6 31  1  0  0  0  0
  6 32  1  0  0  0  0
  7  9  1  0  0  0  0
  7 33  1  0  0  0  0
  7 34  1  0  0  0  0
  8 10  1  0  0  0  0
  8 35  1  0  0  0  0
  8 36  1  0  0  0  0
  9 37  1  0  0  0  0
  9 38  1  0  0  0  0
 10 11  1  0  0  0  0
 10 39  1  0  0  0  0
 10 40  1  0  0  0  0
 11 41  1  0  0  0  0
 11 42  1  0  0  0  0
 12 14  1  0  0  0  0
 12 16  2  0  0  0  0
 13 15  1  0  0  0  0
 13 19  2  0  0  0  0
 14 17  1  0  0  0  0
 14 18  2  0  0  0  0
 15 17  1  0  0  0  0
 15 22  2  0  0  0  0
 16 20  1  0  0  0  0
 16 23  1  0  0  0  0
 18 21  1  0  0  0  0
 18 43  1  0  0  0  0
 19 24  1  0  0  0  0
 19 44  1  0  0  0  0
 20 21  2  0  0  0  0
 20 45  1  0  0  0  0
 21 26  1  0  0  0  0
 22 25  1  0  0  0  0
 22 46  1  0  0  0  0
 23 47  1  0  0  0  0
 23 48  1  0  0  0  0
 23 49  1  0  0  0  0
 24 25  2  0  0  0  0
 24 50  1  0  0  0  0
 25 51  1  0  0  0  0
 26 52  1  0  0  0  0
 26 53  1  0  0  0  0
 26 54  1  0  0  0  0
M  END
> <PUBCHEM_COMPOUND_CID>
137655666

> <PUBCHEM_CONFORMER_RMSD>
0.8

> <PUBCHEM_CONFORMER_DIVERSEORDER>
1
5
4
6
10
2
9
3
8
7

> <PUBCHEM_MMFF94_PARTIAL_CHARGES>
28
1 -0.57
11 0.37
12 0.1
13 0.1
14 0.09
15 0.09
16 -0.14
17 0.4
18 -0.15
19 -0.15
2 -0.81
20 -0.15
21 -0.14
22 -0.15
23 0.14
24 -0.15
25 -0.15
26 0.14
3 -0.57
4 0.27
43 0.15
44 0.15
45 0.15
46 0.15
5 0.27
50 0.15
51 0.15
8 0.27

> <PUBCHEM_EFFECTIVE_ROTOR_COUNT>
5.2

> <PUBCHEM_PHARMACOPHORE_FEATURES>
7
1 1 acceptor
1 2 cation
1 3 cation
6 12 14 16 18 20 21 rings
6 13 15 19 22 24 25 rings
6 2 4 5 6 7 9 rings
6 3 12 13 14 15 17 rings

> <PUBCHEM_HEAVY_ATOM_COUNT>
26

> <PUBCHEM_ATOM_DEF_STEREO_COUNT>
0

> <PUBCHEM_ATOM_UDEF_STEREO_COUNT>
0

> <PUBCHEM_BOND_DEF_STEREO_COUNT>
0

> <PUBCHEM_BOND_UDEF_STEREO_COUNT>
0

> <PUBCHEM_ISOTOPIC_ATOM_COUNT>
0

> <PUBCHEM_COMPONENT_COUNT>
1

> <PUBCHEM_CACTVS_TAUTO_COUNT>
-1

> <PUBCHEM_CONFORMER_ID>
0834757200000001

> <PUBCHEM_MMFF94_ENERGY>
95.3255

> <PUBCHEM_FEATURE_SELFOVERLAP>
35.567

> <PUBCHEM_SHAPE_FINGERPRINT>
10006869 2 18120080698654714451
10319926 262 18196638624319542458
10369192 42 17127582601060074712
10411042 1 18338519746000498319
10670039 82 18335146358959476838
10871710 139 18337669724416489895
10906281 52 18195248806961711981
1100329 8 18120652702130423739
11014199 57 18052253191841751734
11265709 11 18337390543089341919
11578080 2 13253147544010933299
11595378 159 18115573877922918874
12516196 113 18336826497587444442
12553582 1 18337656620540062426
12788726 201 18260822683624608482
13140716 1 18412833478011569793
13540713 5 17625266686765694007
13782708 43 17632576041976342750
138480 1 15456208927461606461
14117953 113 18342177774426577639
14787075 74 17967814989647998778
14790565 3 17835240039189207537
14840074 17 18263095326608716720
14955137 171 18265057005739834299
15042514 8 18410859836974286045
15230672 131 17400368850204584166
15961568 22 18337670936372980916
16087824 20 18337671898788637501
17980427 23 17917999391017444437
1813 80 17749661987092720356
18336668 15 18041278863073186556
18608769 82 18342173406486651984
19611394 137 17971202670904899298
20028762 73 15458764995865748406
21033648 29 17846767520868071275
21267235 1 18337678610503696554
2297311 6 18412270540542273166
23557571 272 18343026584175355590
23559900 14 18266168608290950579
335352 9 18410292519867300087
4098825 35 18340494375222690430
469060 322 17240481390643178742
5104073 3 18341604876986235042
6287921 2 17983000439371120160
7399639 24 18200860873481737130
7808743 9 18267020562214194056

> <PUBCHEM_SHAPE_MULTIPOLES>
519.24
11.53
4.84
0.9
14.42
4.52
0.04
-7.98
1.56
-3.94
-0.72
0.46
-0.05
-0.16

> <PUBCHEM_SHAPE_SELFOVERLAP>
1120.769

> <PUBCHEM_SHAPE_VOLUME>
285.5

> <PUBCHEM_COORDINATE_TYPE>
2
5
10

$$$$