137641138
  -OEChem-03242010103D

 56 59  0     0  0  0  0  0  0999 V2000
   -4.2982   -0.4941   -1.8176 O   0  0  0  0  0  0  0  0  0  0  0  0
    3.7112    0.1864    0.3045 N   0  0  0  0  0  0  0  0  0  0  0  0
    6.3737   -0.1911   -0.7570 N   0  0  0  0  0  0  0  0  0  0  0  0
   -1.1790   -0.3835    0.7602 N   0  0  0  0  0  0  0  0  0  0  0  0
    4.8918    0.7053    1.0059 C   0  0  0  0  0  0  0  0  0  0  0  0
    4.0606   -1.0111   -0.4693 C   0  0  0  0  0  0  0  0  0  0  0  0
    2.6321   -0.1013    1.2472 C   0  0  0  0  0  0  0  0  0  0  0  0
    5.1927   -0.7105   -1.4575 C   0  0  0  0  0  0  0  0  0  0  0  0
    6.0248    1.0055    0.0187 C   0  0  0  0  0  0  0  0  0  0  0  0
    1.2603   -0.1006    0.5653 C   0  0  0  0  0  0  0  0  0  0  0  0
    0.0819   -0.3474    1.5065 C   0  0  0  0  0  0  0  0  0  0  0  0
   -1.7867    0.8401    0.3973 C   0  0  0  0  0  0  0  0  0  0  0  0
   -1.7617   -1.6389    0.4738 C   0  0  0  0  0  0  0  0  0  0  0  0
    7.4516    0.0980   -1.7007 C   0  0  0  0  0  0  0  0  0  0  0  0
   -2.8925    0.8334   -0.4750 C   0  0  0  0  0  0  0  0  0  0  0  0
   -2.8671   -1.7080   -0.3966 C   0  0  0  0  0  0  0  0  0  0  0  0
   -1.3609    2.0941    0.8727 C   0  0  0  0  0  0  0  0  0  0  0  0
   -3.4170   -0.4592   -0.9684 C   0  0  0  0  0  0  0  0  0  0  0  0
   -3.5200    2.0195   -0.8820 C   0  0  0  0  0  0  0  0  0  0  0  0
   -1.3112   -2.8525    1.0250 C   0  0  0  0  0  0  0  0  0  0  0  0
   -1.9867    3.2802    0.4731 C   0  0  0  0  0  0  0  0  0  0  0  0
   -3.0609    3.2432   -0.4075 C   0  0  0  0  0  0  0  0  0  0  0  0
   -3.4706   -2.9293   -0.7292 C   0  0  0  0  0  0  0  0  0  0  0  0
   -0.1591    2.2969    1.7444 C   0  0  0  0  0  0  0  0  0  0  0  0
   -1.9129   -4.0732    0.6996 C   0  0  0  0  0  0  0  0  0  0  0  0
   -2.9874   -4.1120   -0.1808 C   0  0  0  0  0  0  0  0  0  0  0  0
   -3.7089    4.5100   -0.8527 C   0  0  0  0  0  0  0  0  0  0  0  0
    5.2403   -0.0083    1.7650 H   0  0  0  0  0  0  0  0  0  0  0  0
    4.3629   -1.8335    0.1935 H   0  0  0  0  0  0  0  0  0  0  0  0
    3.2011   -1.3616   -1.0508 H   0  0  0  0  0  0  0  0  0  0  0  0
    4.6379    1.6376    1.5250 H   0  0  0  0  0  0  0  0  0  0  0  0
    2.6011    0.6799    2.0180 H   0  0  0  0  0  0  0  0  0  0  0  0
    2.8005   -1.0464    1.7797 H   0  0  0  0  0  0  0  0  0  0  0  0
    5.7275    1.8292   -0.6446 H   0  0  0  0  0  0  0  0  0  0  0  0
    6.8981    1.3449    0.5890 H   0  0  0  0  0  0  0  0  0  0  0  0
    5.4511   -1.6400   -1.9792 H   0  0  0  0  0  0  0  0  0  0  0  0
    4.8413    0.0029   -2.2155 H   0  0  0  0  0  0  0  0  0  0  0  0
    1.1374    0.7839   -0.0685 H   0  0  0  0  0  0  0  0  0  0  0  0
    1.2479   -0.9270   -0.1599 H   0  0  0  0  0  0  0  0  0  0  0  0
    0.0535    0.2043    2.4381 H   0  0  0  0  0  0  0  0  0  0  0  0
    0.3221   -1.3122    1.9536 H   0  0  0  0  0  0  0  0  0  0  0  0
    7.7393   -0.8084   -2.2449 H   0  0  0  0  0  0  0  0  0  0  0  0
    8.3457    0.4423   -1.1691 H   0  0  0  0  0  0  0  0  0  0  0  0
    7.1689    0.8640   -2.4319 H   0  0  0  0  0  0  0  0  0  0  0  0
   -4.3683    1.9927   -1.5614 H   0  0  0  0  0  0  0  0  0  0  0  0
   -0.4937   -2.9339    1.7302 H   0  0  0  0  0  0  0  0  0  0  0  0
   -1.6365    4.2464    0.8299 H   0  0  0  0  0  0  0  0  0  0  0  0
   -4.3203   -2.9747   -1.4049 H   0  0  0  0  0  0  0  0  0  0  0  0
   -0.3234    1.9448    2.7660 H   0  0  0  0  0  0  0  0  0  0  0  0
    0.8093    2.0845    1.3148 H   0  0  0  0  0  0  0  0  0  0  0  0
   -0.0465    3.3771    1.9343 H   0  0  0  0  0  0  0  0  0  0  0  0
   -1.5398   -4.9941    1.1391 H   0  0  0  0  0  0  0  0  0  0  0  0
   -3.4529   -5.0602   -0.4319 H   0  0  0  0  0  0  0  0  0  0  0  0
   -4.4568    4.8272   -0.1192 H   0  0  0  0  0  0  0  0  0  0  0  0
   -2.9687    5.3088   -0.9703 H   0  0  0  0  0  0  0  0  0  0  0  0
   -4.2032    4.3869   -1.8224 H   0  0  0  0  0  0  0  0  0  0  0  0
  1 18  2  0  0  0  0
  2  5  1  0  0  0  0
  2  6  1  0  0  0  0
  2  7  1  0  0  0  0
  3  8  1  0  0  0  0
  3  9  1  0  0  0  0
  3 14  1  0  0  0  0
  4 11  1  0  0  0  0
  4 12  1  0  0  0  0
  4 13  1  0  0  0  0
  5  9  1  0  0  0  0
  5 28  1  0  0  0  0
  5 31  1  0  0  0  0
  6  8  1  0  0  0  0
  6 29  1  0  0  0  0
  6 30  1  0  0  0  0
  7 10  1  0  0  0  0
  7 32  1  0  0  0  0
  7 33  1  0  0  0  0
  8 36  1  0  0  0  0
  8 37  1  0  0  0  0
  9 34  1  0  0  0  0
  9 35  1  0  0  0  0
 10 11  1  0  0  0  0
 10 38  1  0  0  0  0
 10 39  1  0  0  0  0
 11 40  1  0  0  0  0
 11 41  1  0  0  0  0
 12 15  1  0  0  0  0
 12 17  2  0  0  0  0
 13 16  1  0  0  0  0
 13 20  2  0  0  0  0
 14 42  1  0  0  0  0
 14 43  1  0  0  0  0
 14 44  1  0  0  0  0
 15 18  1  0  0  0  0
 15 19  2  0  0  0  0
 16 18  1  0  0  0  0
 16 23  2  0  0  0  0
 17 21  1  0  0  0  0
 17 24  1  0  0  0  0
 19 22  1  0  0  0  0
 19 45  1  0  0  0  0
 20 25  1  0  0  0  0
 20 46  1  0  0  0  0
 21 22  2  0  0  0  0
 21 47  1  0  0  0  0
 22 27  1  0  0  0  0
 23 26  1  0  0  0  0
 23 48  1  0  0  0  0
 24 49  1  0  0  0  0
 24 50  1  0  0  0  0
 24 51  1  0  0  0  0
 25 26  2  0  0  0  0
 25 52  1  0  0  0  0
 26 53  1  0  0  0  0
 27 54  1  0  0  0  0
 27 55  1  0  0  0  0
 27 56  1  0  0  0  0
M  END
> <PUBCHEM_COMPOUND_CID>
137641138

> <PUBCHEM_CONFORMER_RMSD>
0.8

> <PUBCHEM_CONFORMER_DIVERSEORDER>
2
11
12
4
3
6
9
8
10
1
5
7

> <PUBCHEM_MMFF94_PARTIAL_CHARGES>
32
1 -0.57
11 0.37
12 0.1
13 0.1
14 0.27
15 0.09
16 0.09
17 -0.14
18 0.4
19 -0.15
2 -0.81
20 -0.15
21 -0.15
22 -0.14
23 -0.15
24 0.14
25 -0.15
26 -0.15
27 0.14
3 -0.81
4 -0.57
45 0.15
46 0.15
47 0.15
48 0.15
5 0.27
52 0.15
53 0.15
6 0.27
7 0.27
8 0.27
9 0.27

> <PUBCHEM_EFFECTIVE_ROTOR_COUNT>
5.2

> <PUBCHEM_PHARMACOPHORE_FEATURES>
8
1 1 acceptor
1 2 cation
1 3 cation
1 4 cation
6 12 15 17 19 21 22 rings
6 13 16 20 23 25 26 rings
6 2 3 5 6 8 9 rings
6 4 12 13 15 16 18 rings

> <PUBCHEM_HEAVY_ATOM_COUNT>
27

> <PUBCHEM_ATOM_DEF_STEREO_COUNT>
0

> <PUBCHEM_ATOM_UDEF_STEREO_COUNT>
0

> <PUBCHEM_BOND_DEF_STEREO_COUNT>
0

> <PUBCHEM_BOND_UDEF_STEREO_COUNT>
0

> <PUBCHEM_ISOTOPIC_ATOM_COUNT>
0

> <PUBCHEM_COMPONENT_COUNT>
1

> <PUBCHEM_CACTVS_TAUTO_COUNT>
-1

> <PUBCHEM_CONFORMER_ID>
08343CB200000002

> <PUBCHEM_MMFF94_ENERGY>
107.4982

> <PUBCHEM_FEATURE_SELFOVERLAP>
40.644

> <PUBCHEM_SHAPE_FINGERPRINT>
10076449 9 18187649171827424715
10674148 151 16629392537498986217
107951 10 18269835316181316239
10937287 8 18048874100640964525
11049842 53 17978487768514702274
11056379 131 18410294735258138618
11434127 23 18337958986797065662
12293681 160 17915170218080810945
12788726 201 18261945332214938243
13140716 1 17975938212283469371
13690498 29 18341058527012755934
13941206 138 18192431874944809699
14114211 68 18052815845859024737
14251757 5 18410574006658137619
14790565 3 18124590882562161953
15463212 79 18187925019462813763
15475509 35 12314324176416402845
15475509 8 18270956973199228807
16992828 155 17459184088925905052
16994733 274 15069439628498615647
19958102 18 18336819789190991222
20101258 96 18191874624560319827
21033650 10 18259989292813190850
21756936 100 17604162432336510648
22122407 14 15285639863193568374
22393880 68 18341615898114817878
23366157 5 17254263533106529779
23522609 53 12175348084788486986
23557571 272 18343018926074424616
23559900 14 18268982258230100336
255183 451 17765430238113775879
3610482 184 18041012730320939838
394222 165 17609764311067587681
437815 12 18058167409522242139
484985 159 16487262062421443823
497634 4 17774459281481565458
508706 21 18413388752625947622
5283173 99 18411696578545574584
531348 171 18337113367792022346
6608658 132 17894908499614138188
6898599 12 18335703827823017524

> <PUBCHEM_SHAPE_MULTIPOLES>
534.83
13.13
5.08
1.5
33.83
0.33
0.06
-1.55
7.61
-10.44
0
0.67
-0.16
0.88

> <PUBCHEM_SHAPE_SELFOVERLAP>
1150.682

> <PUBCHEM_SHAPE_VOLUME>
295.9

> <PUBCHEM_COORDINATE_TYPE>
2
5
10

$$$$