133129
  -OEChem-03242010103D

 47 50  0     1  0  0  0  0  0999 V2000
    6.9864   -1.9055   -0.6464 S   0  0  0  0  0  0  0  0  0  0  0  0
    7.4724   -1.3316   -2.0457 F   0  0  0  0  0  0  0  0  0  0  0  0
   -1.1566    0.7851   -0.5067 O   0  0  0  0  0  0  0  0  0  0  0  0
   -2.9883    2.6570   -2.3599 O   0  0  0  0  0  0  0  0  0  0  0  0
   -1.8687    4.3068   -0.5006 O   0  0  0  0  0  0  0  0  0  0  0  0
    1.4320    1.5205    0.3502 O   0  0  0  0  0  0  0  0  0  0  0  0
    2.4925    2.1669    2.2886 O   0  0  0  0  0  0  0  0  0  0  0  0
    8.1036   -1.7048    0.2559 O   0  0  0  0  0  0  0  0  0  0  0  0
    6.4496   -3.2201   -0.9400 O   0  0  0  0  0  0  0  0  0  0  0  0
   -3.3148   -0.0870   -0.0415 N   0  0  0  0  0  0  0  0  0  0  0  0
   -3.9769   -1.0654    1.8512 N   0  0  0  0  0  0  0  0  0  0  0  0
   -4.9267   -1.0427   -1.5877 N   0  0  0  0  0  0  0  0  0  0  0  0
   -6.4620   -2.5577   -0.4461 N   0  0  0  0  0  0  0  0  0  0  0  0
   -6.3294   -2.9910    1.9037 N   0  0  0  0  0  0  0  0  0  0  0  0
   -3.0242    2.2070   -1.0066 C   0  0  2  0  0  0  0  0  0  0  0  0
   -2.0086    2.9454   -0.1551 C   0  0  1  0  0  0  0  0  0  0  0  0
   -2.5324    0.7599   -0.9435 C   0  0  1  0  0  0  0  0  0  0  0  0
   -0.7368    2.1561   -0.4126 C   0  0  1  0  0  0  0  0  0  0  0  0
    0.2993    2.3023    0.6873 C   0  0  0  0  0  0  0  0  0  0  0  0
   -4.3793   -0.8774   -0.3742 C   0  0  0  0  0  0  0  0  0  0  0  0
   -3.1122   -0.2352    1.3062 C   0  0  0  0  0  0  0  0  0  0  0  0
   -4.7748   -1.4742    0.8123 C   0  0  0  0  0  0  0  0  0  0  0  0
   -5.8596   -2.3429    0.7483 C   0  0  0  0  0  0  0  0  0  0  0  0
    2.4647    1.5403    1.2407 C   0  0  0  0  0  0  0  0  0  0  0  0
   -5.9654   -1.9039   -1.5239 C   0  0  0  0  0  0  0  0  0  0  0  0
    3.5856    0.6863    0.7726 C   0  0  0  0  0  0  0  0  0  0  0  0
    4.8750    1.0231    1.1303 C   0  0  0  0  0  0  0  0  0  0  0  0
    3.3030   -0.4177   -0.0053 C   0  0  0  0  0  0  0  0  0  0  0  0
    5.6686   -0.9005   -0.0971 C   0  0  0  0  0  0  0  0  0  0  0  0
    5.9280    0.2211    0.6905 C   0  0  0  0  0  0  0  0  0  0  0  0
    4.3561   -1.2200   -0.4450 C   0  0  0  0  0  0  0  0  0  0  0  0
   -4.0480    2.3515   -0.6465 H   0  0  0  0  0  0  0  0  0  0  0  0
   -2.3026    2.8720    0.8993 H   0  0  0  0  0  0  0  0  0  0  0  0
   -2.5480    0.2723   -1.9251 H   0  0  0  0  0  0  0  0  0  0  0  0
   -0.2847    2.4276   -1.3754 H   0  0  0  0  0  0  0  0  0  0  0  0
   -0.1071    1.9369    1.6380 H   0  0  0  0  0  0  0  0  0  0  0  0
    0.5957    3.3514    0.7965 H   0  0  0  0  0  0  0  0  0  0  0  0
   -3.6277    2.1218   -2.8604 H   0  0  0  0  0  0  0  0  0  0  0  0
   -1.1763    4.6867    0.0660 H   0  0  0  0  0  0  0  0  0  0  0  0
   -2.3281    0.2847    1.8395 H   0  0  0  0  0  0  0  0  0  0  0  0
   -6.4719   -2.0994   -2.4631 H   0  0  0  0  0  0  0  0  0  0  0  0
   -5.8817   -2.8323    2.7963 H   0  0  0  0  0  0  0  0  0  0  0  0
   -7.1194   -3.6175    1.8316 H   0  0  0  0  0  0  0  0  0  0  0  0
    5.0896    1.8965    1.7389 H   0  0  0  0  0  0  0  0  0  0  0  0
    2.2894   -0.6941   -0.2798 H   0  0  0  0  0  0  0  0  0  0  0  0
    6.9423    0.4939    0.9677 H   0  0  0  0  0  0  0  0  0  0  0  0
    4.1301   -2.0861   -1.0605 H   0  0  0  0  0  0  0  0  0  0  0  0
  1  2  1  0  0  0  0
  1  8  2  0  0  0  0
  1  9  2  0  0  0  0
  1 29  1  0  0  0  0
  3 17  1  0  0  0  0
  3 18  1  0  0  0  0
  4 15  1  0  0  0  0
  4 38  1  0  0  0  0
  5 16  1  0  0  0  0
  5 39  1  0  0  0  0
  6 19  1  0  0  0  0
  6 24  1  0  0  0  0
  7 24  2  0  0  0  0
 10 17  1  0  0  0  0
 10 20  1  0  0  0  0
 10 21  1  0  0  0  0
 11 21  2  0  0  0  0
 11 22  1  0  0  0  0
 12 20  2  0  0  0  0
 12 25  1  0  0  0  0
 13 23  1  0  0  0  0
 13 25  2  0  0  0  0
 14 23  1  0  0  0  0
 14 42  1  0  0  0  0
 14 43  1  0  0  0  0
 15 16  1  0  0  0  0
 15 17  1  0  0  0  0
 15 32  1  0  0  0  0
 16 18  1  0  0  0  0
 16 33  1  0  0  0  0
 17 34  1  0  0  0  0
 18 19  1  0  0  0  0
 18 35  1  0  0  0  0
 19 36  1  0  0  0  0
 19 37  1  0  0  0  0
 20 22  1  0  0  0  0
 21 40  1  0  0  0  0
 22 23  2  0  0  0  0
 24 26  1  0  0  0  0
 25 41  1  0  0  0  0
 26 27  2  0  0  0  0
 26 28  1  0  0  0  0
 27 30  1  0  0  0  0
 27 44  1  0  0  0  0
 28 31  2  0  0  0  0
 28 45  1  0  0  0  0
 29 30  2  0  0  0  0
 29 31  1  0  0  0  0
 30 46  1  0  0  0  0
 31 47  1  0  0  0  0
M  END
> <PUBCHEM_COMPOUND_CID>
133129

> <PUBCHEM_CONFORMER_RMSD>
1

> <PUBCHEM_CONFORMER_DIVERSEORDER>
1
144
21
73
130
133
188
62
116
177
106
131
229
232
29
90
10
179
92
115
223
153
54
69
207
119
120
34
27
53
135
226
184
136
203
105
118
37
60
95
176
72
165
216
204
86
143
45
172
28
149
88
194
199
169
127
208
15
193
123
181
206
142
44
220
5
77
76
87
164
191
80
70
145
38
65
4
214
9
217
218
83
96
196
14
102
132
18
162
100
124
154
57
175
174
186
230
52
227
139
111
210
189
2
19
68
22
36
63
49
103
159
128
74
221
157
163
78
225
156
17
104
81
209
110
171
42
82
59
166
55
161
215
26
113
20
89
33
155
13
50
58
41
185
148
30
64
7
46
201
109
233
93
212
192
150
126
71
178
146
3
134
200
51
98
138
101
117
183
99
25
97
94
31
197
114
190
180
24
141
66
202
121
173
85
160
35
213
222
195
108
147
122
125
23
228
6
107
224
231
140
40
170
151
12
11
152
79
32
47
211
182
67
39
168
8
48
75
61
91
112
167
187
84
137
16
158
56
219
43
198
205
129

> <PUBCHEM_MMFF94_PARTIAL_CHARGES>
41
1 1.51
10 0.05
11 -0.57
12 -0.57
13 -0.62
14 -0.9
15 0.28
16 0.28
17 0.54
18 0.28
19 0.28
2 -0.2
20 0.11
21 0.04
22 0.23
23 0.41
24 0.63
25 0.47
26 0.09
27 -0.15
28 -0.15
29 -0.01
3 -0.56
30 -0.15
31 -0.15
38 0.4
39 0.4
4 -0.68
40 0.15
41 0.15
42 0.4
43 0.4
44 0.15
45 0.15
46 0.15
47 0.15
5 -0.68
6 -0.43
7 -0.57
8 -0.65
9 -0.65

> <PUBCHEM_EFFECTIVE_ROTOR_COUNT>
7

> <PUBCHEM_PHARMACOPHORE_FEATURES>
15
1 14 cation
1 14 donor
1 3 acceptor
1 4 acceptor
1 4 donor
1 5 acceptor
1 5 donor
1 7 acceptor
3 10 11 21 cation
3 10 12 20 cation
3 12 13 25 cation
5 10 11 20 21 22 rings
5 3 15 16 17 18 rings
6 12 13 20 22 23 25 rings
6 26 27 28 29 30 31 rings

> <PUBCHEM_HEAVY_ATOM_COUNT>
31

> <PUBCHEM_ATOM_DEF_STEREO_COUNT>
4

> <PUBCHEM_ATOM_UDEF_STEREO_COUNT>
0

> <PUBCHEM_BOND_DEF_STEREO_COUNT>
0

> <PUBCHEM_BOND_UDEF_STEREO_COUNT>
0

> <PUBCHEM_ISOTOPIC_ATOM_COUNT>
0

> <PUBCHEM_COMPONENT_COUNT>
1

> <PUBCHEM_CACTVS_TAUTO_COUNT>
3

> <PUBCHEM_CONFORMER_ID>
0002080900000001

> <PUBCHEM_MMFF94_ENERGY>
72.6504

> <PUBCHEM_FEATURE_SELFOVERLAP>
76.739

> <PUBCHEM_SHAPE_FINGERPRINT>
10119406 146 18270114588156867245
10669705 162 18411688895112664079
10670039 82 18040433270117899018
11393246 34 18342453733942216503
11545043 162 18339074900656660772
117089 54 18411707573472292502
11991303 11 17971465209729614741
12342043 65 18341326773073515736
12760667 363 18335700568279936329
12975358 362 10303535077698184691
131258 43 18262249914511613276
13402501 40 18410855490240932106
13540713 4 18270660027080730000
1361 4 18264487275019645674
1361 87 17822860887032506075
13673619 4 18343304777496326296
13690498 29 18408601439932669852
13757389 114 17824820049487596117
13782708 43 18412540994901628666
14251764 30 18273215287950274642
14647877 103 10591748914705266946
14931854 50 17531238465784939787
14950920 106 16558464305195352635
15183329 4 14562802274936459815
15361156 5 18334869298217927813
15510800 12 18335701675828007514
19246450 95 16773248288407155907
20501277 180 10517501003527983059
21585481 104 15213562456751662567
21682296 61 18342737442455181103
21716022 299 17460332164017740085
2260408 40 15482398565086921212
2303208 19 18272087180672782908
23559900 14 17242720138621314261
24771750 20 16744786106978295541
25025965 108 18198317625092588526
2748736 6 7925627778987186694
3862424 121 17678476370248159931
393628 179 12180130929835394086
393628 194 7997969098138167647
397638 26 10952058831702781766
4046055 4 18334849533438438693
4073 2 18339357445286119064
4330586 98 17677630790377727426
437815 12 18262793094946218025
439807 62 18408886205160296958
46194498 28 18262794185630911144
474113 269 17489860566983688607
484985 159 18129946663666771889
513202 73 18413386536312248189
54039377 194 18131357384994435134
56633871 153 18198902698780377183
58083652 198 16343121577447099120
6201460 15 17268611506519425271
636775 8 18058741200611338230
6698420 124 17912359823564146753
7918774 8 18261113040888546859
8863177 126 18272649048183532986
999808 66 18272088284052194782

> <PUBCHEM_SHAPE_MULTIPOLES>
568.55
21.17
4.01
1.72
21.26
1.67
0.02
-24.39
-2.51
-2.92
-0.55
-1.11
-0.01
4.06

> <PUBCHEM_SHAPE_SELFOVERLAP>
1233.578

> <PUBCHEM_SHAPE_VOLUME>
315.7

> <PUBCHEM_COORDINATE_TYPE>
2
5
10

$$$$