137644196
  -OEChem-03242010103D

 70 73  0     1  0  0  0  0  0999 V2000
   -2.2081   -3.6002    2.4343 S   0  0  0  0  0  0  0  0  0  0  0  0
   -3.2027    5.0754   -0.8568 F   0  0  0  0  0  0  0  0  0  0  0  0
   -1.1216    4.4770   -0.6587 F   0  0  0  0  0  0  0  0  0  0  0  0
   -5.1658   -0.2297    1.8054 O   0  0  0  0  0  0  0  0  0  0  0  0
    2.8670   -3.0171    1.3007 O   0  0  0  0  0  0  0  0  0  0  0  0
    6.4366    0.2718   -0.2167 O   0  0  0  0  0  0  0  0  0  0  0  0
    2.5512    2.8645    0.8422 O   0  0  0  0  0  0  0  0  0  0  0  0
    5.2184    2.7382    0.1052 O   0  0  0  0  0  0  0  0  0  0  0  0
   -3.5736    0.6670    0.3782 N   0  0  0  0  0  0  0  0  0  0  0  0
   -1.9289   -1.5105    0.9384 N   0  0  0  0  0  0  0  0  0  0  0  0
    0.9235   -1.8973    0.7200 N   0  0  0  0  0  0  0  0  0  0  0  0
   -4.3167    1.8550    0.0246 C   0  0  0  0  0  0  0  0  0  0  0  0
   -4.0555    2.9825    1.0289 C   0  0  0  0  0  0  0  0  0  0  0  0
   -4.0131    2.2934   -1.4130 C   0  0  0  0  0  0  0  0  0  0  0  0
   -2.6613    3.5899    0.8780 C   0  0  0  0  0  0  0  0  0  0  0  0
   -2.6236    2.9130   -1.5619 C   0  0  0  0  0  0  0  0  0  0  0  0
   -2.3961    4.0252   -0.5529 C   0  0  0  0  0  0  0  0  0  0  0  0
   -4.0711   -0.2860    1.2512 C   0  0  0  0  0  0  0  0  0  0  0  0
   -3.1736   -1.4359    1.5326 C   0  0  0  0  0  0  0  0  0  0  0  0
    0.0217   -3.0306    0.9162 C   0  0  1  0  0  0  0  0  0  0  0  0
   -1.3312   -2.6099    1.3412 C   0  0  0  0  0  0  0  0  0  0  0  0
    0.0630   -3.8881   -0.3814 C   0  0  0  0  0  0  0  0  0  0  0  0
   -3.5025   -2.4767    2.3755 C   0  0  0  0  0  0  0  0  0  0  0  0
   -0.5840   -3.1988   -1.5591 C   0  0  0  0  0  0  0  0  0  0  0  0
    2.2798   -2.0024    0.9346 C   0  0  0  0  0  0  0  0  0  0  0  0
    0.1796   -2.3853   -2.3962 C   0  0  0  0  0  0  0  0  0  0  0  0
   -1.9448   -3.3750   -1.8096 C   0  0  0  0  0  0  0  0  0  0  0  0
    3.0549   -0.7538    0.7172 C   0  0  0  0  0  0  0  0  0  0  0  0
   -0.4176   -1.7479   -3.4837 C   0  0  0  0  0  0  0  0  0  0  0  0
   -2.5421   -2.7377   -2.8973 C   0  0  0  0  0  0  0  0  0  0  0  0
    2.4382    0.4866    0.8814 C   0  0  0  0  0  0  0  0  0  0  0  0
    4.3982   -0.8212    0.3479 C   0  0  0  0  0  0  0  0  0  0  0  0
   -1.7785   -1.9242   -3.7342 C   0  0  0  0  0  0  0  0  0  0  0  0
    5.1249    0.3516    0.1427 C   0  0  0  0  0  0  0  0  0  0  0  0
    3.1649    1.6595    0.6764 C   0  0  0  0  0  0  0  0  0  0  0  0
    4.5083    1.5919    0.3072 C   0  0  0  0  0  0  0  0  0  0  0  0
    6.9897   -1.0348   -0.3635 C   0  0  0  0  0  0  0  0  0  0  0  0
    1.1761    2.8445    1.2204 C   0  0  0  0  0  0  0  0  0  0  0  0
    5.2165    3.2759   -1.2154 C   0  0  0  0  0  0  0  0  0  0  0  0
   -5.3820    1.5970    0.0779 H   0  0  0  0  0  0  0  0  0  0  0  0
   -4.8008    3.7733    0.8742 H   0  0  0  0  0  0  0  0  0  0  0  0
   -4.1078    1.4433   -2.0994 H   0  0  0  0  0  0  0  0  0  0  0  0
   -4.1861    2.6242    2.0570 H   0  0  0  0  0  0  0  0  0  0  0  0
   -4.7614    3.0348   -1.7214 H   0  0  0  0  0  0  0  0  0  0  0  0
   -2.5676    4.4534    1.5464 H   0  0  0  0  0  0  0  0  0  0  0  0
   -1.8492    2.1457   -1.4456 H   0  0  0  0  0  0  0  0  0  0  0  0
   -2.5136    3.3124   -2.5767 H   0  0  0  0  0  0  0  0  0  0  0  0
   -1.9003    2.8669    1.1931 H   0  0  0  0  0  0  0  0  0  0  0  0
   -2.6325    0.5535    0.0122 H   0  0  0  0  0  0  0  0  0  0  0  0
    0.4714   -3.6433    1.7094 H   0  0  0  0  0  0  0  0  0  0  0  0
    1.0960   -4.1574   -0.6376 H   0  0  0  0  0  0  0  0  0  0  0  0
   -0.4540   -4.8407   -0.2034 H   0  0  0  0  0  0  0  0  0  0  0  0
   -4.4079   -2.6346    2.9445 H   0  0  0  0  0  0  0  0  0  0  0  0
    0.5198   -1.0521    0.3297 H   0  0  0  0  0  0  0  0  0  0  0  0
    1.2415   -2.2418   -2.2159 H   0  0  0  0  0  0  0  0  0  0  0  0
   -2.5519   -4.0094   -1.1693 H   0  0  0  0  0  0  0  0  0  0  0  0
    0.1770   -1.1146   -4.1356 H   0  0  0  0  0  0  0  0  0  0  0  0
   -3.6016   -2.8750   -3.0923 H   0  0  0  0  0  0  0  0  0  0  0  0
    1.4075    0.5080    1.2120 H   0  0  0  0  0  0  0  0  0  0  0  0
    4.8273   -1.8099    0.2268 H   0  0  0  0  0  0  0  0  0  0  0  0
   -2.2436   -1.4276   -4.5808 H   0  0  0  0  0  0  0  0  0  0  0  0
    6.5045   -1.5903   -1.1733 H   0  0  0  0  0  0  0  0  0  0  0  0
    8.0390   -0.9091   -0.6506 H   0  0  0  0  0  0  0  0  0  0  0  0
    6.9844   -1.5849    0.5837 H   0  0  0  0  0  0  0  0  0  0  0  0
    0.5530    2.3710    0.4538 H   0  0  0  0  0  0  0  0  0  0  0  0
    1.0349    2.3989    2.2110 H   0  0  0  0  0  0  0  0  0  0  0  0
    0.8483    3.8868    1.2940 H   0  0  0  0  0  0  0  0  0  0  0  0
    5.8237    4.1852   -1.2157 H   0  0  0  0  0  0  0  0  0  0  0  0
    4.1989    3.5350   -1.5246 H   0  0  0  0  0  0  0  0  0  0  0  0
    5.6535    2.5635   -1.9223 H   0  0  0  0  0  0  0  0  0  0  0  0
  1 21  1  0  0  0  0
  1 23  1  0  0  0  0
  2 17  1  0  0  0  0
  3 17  1  0  0  0  0
  4 18  2  0  0  0  0
  5 25  2  0  0  0  0
  6 34  1  0  0  0  0
  6 37  1  0  0  0  0
  7 35  1  0  0  0  0
  7 38  1  0  0  0  0
  8 36  1  0  0  0  0
  8 39  1  0  0  0  0
  9 12  1  0  0  0  0
  9 18  1  0  0  0  0
  9 49  1  0  0  0  0
 10 19  1  0  0  0  0
 10 21  2  0  0  0  0
 11 20  1  0  0  0  0
 11 25  1  0  0  0  0
 11 54  1  0  0  0  0
 12 13  1  0  0  0  0
 12 14  1  0  0  0  0
 12 40  1  0  0  0  0
 13 15  1  0  0  0  0
 13 41  1  0  0  0  0
 13 43  1  0  0  0  0
 14 16  1  0  0  0  0
 14 42  1  0  0  0  0
 14 44  1  0  0  0  0
 15 17  1  0  0  0  0
 15 45  1  0  0  0  0
 15 48  1  0  0  0  0
 16 17  1  0  0  0  0
 16 46  1  0  0  0  0
 16 47  1  0  0  0  0
 18 19  1  0  0  0  0
 19 23  2  0  0  0  0
 20 21  1  0  0  0  0
 20 22  1  0  0  0  0
 20 50  1  0  0  0  0
 22 24  1  0  0  0  0
 22 51  1  0  0  0  0
 22 52  1  0  0  0  0
 23 53  1  0  0  0  0
 24 26  2  0  0  0  0
 24 27  1  0  0  0  0
 25 28  1  0  0  0  0
 26 29  1  0  0  0  0
 26 55  1  0  0  0  0
 27 30  2  0  0  0  0
 27 56  1  0  0  0  0
 28 31  2  0  0  0  0
 28 32  1  0  0  0  0
 29 33  2  0  0  0  0
 29 57  1  0  0  0  0
 30 33  1  0  0  0  0
 30 58  1  0  0  0  0
 31 35  1  0  0  0  0
 31 59  1  0  0  0  0
 32 34  2  0  0  0  0
 32 60  1  0  0  0  0
 33 61  1  0  0  0  0
 34 36  1  0  0  0  0
 35 36  2  0  0  0  0
 37 62  1  0  0  0  0
 37 63  1  0  0  0  0
 37 64  1  0  0  0  0
 38 65  1  0  0  0  0
 38 66  1  0  0  0  0
 38 67  1  0  0  0  0
 39 68  1  0  0  0  0
 39 69  1  0  0  0  0
 39 70  1  0  0  0  0
M  END
> <PUBCHEM_COMPOUND_CID>
137644196

> <PUBCHEM_CONFORMER_RMSD>
1.2

> <PUBCHEM_CONFORMER_DIVERSEORDER>
4
265
328
215
32
204
212
96
36
273
165
346
251
47
111
162
280
192
186
172
302
268
260
269
157
148
227
98
67
254
350
37
149
210
341
282
353
220
340
171
238
84
144
80
131
297
11
319
285
53
255
99
347
306
89
351
134
228
301
158
299
333
52
110
216
199
108
335
117
336
279
318
127
295
233
146
342
206
181
252
94
188
274
95
304
129
24
176
226
244
122
289
196
242
197
2
163
174
65
229
185
102
307
120
296
219
337
105
235
200
272
201
154
164
237
71
175
290
189
107
184
247
281
26
300
43
66
168
352
62
221
264
151
310
182
57
195
64
249
325
138
50
314
193
241
329
136
236
135
320
72
69
343
248
271
303
332
287
30
230
354
91
222
60
198
312
1
294
78
179
225
331
266
208
124
286
283
305
13
70
259
203
250
38
190
15
202
133
256
23
8
261
150
218
46
311
12
58
155
113
253
330
205
177
118
293
63
213
278
119
224
173
92
83
93
79
187
317
178
308
3
170
292
39
132
147
19
344
137
17
44
16
109
276
115
313
284
152
41
324
223
243
270
339
112
161
123
34
126
209
141
167
263
275
326
349
245
106
267
258
345
316
10
90
73
125
217
194
104
207
85
246
68
28
262
231
240
87
180
309
103
101
88
35
327
298
21
97
160
61
140
166
156
145
86
338
288
56
128
214
139
20
232
130
323
14
54
81
114
191
18
143
153
169
334
183
29
75
25
211
77
315
33
116
142
322
9
31
257
159
100
40
321
76
74
49
27
277
55
234
5
291
121
82
42
7
239
48
348
6
51
59
45
22

> <PUBCHEM_MMFF94_PARTIAL_CHARGES>
45
1 -0.08
10 -0.57
11 -0.73
12 0.3
17 0.68
18 0.72
19 0.14
2 -0.34
20 0.48
21 0.2
22 0.14
23 -0.11
24 -0.14
25 0.54
26 -0.15
27 -0.15
28 0.09
29 -0.15
3 -0.34
30 -0.15
31 -0.15
32 -0.15
33 -0.15
34 0.08
35 0.08
36 0.08
37 0.28
38 0.28
39 0.28
4 -0.57
49 0.37
5 -0.57
53 0.15
54 0.37
55 0.15
56 0.15
57 0.15
58 0.15
59 0.15
6 -0.36
60 0.15
61 0.15
7 -0.36
8 -0.36
9 -0.73

> <PUBCHEM_EFFECTIVE_ROTOR_COUNT>
13.2

> <PUBCHEM_PHARMACOPHORE_FEATURES>
12
1 10 acceptor
1 11 donor
1 4 acceptor
1 5 acceptor
1 6 acceptor
1 7 acceptor
1 8 acceptor
1 9 donor
5 1 10 19 21 23 rings
6 12 13 14 15 16 17 rings
6 24 26 27 29 30 33 rings
6 28 31 32 34 35 36 rings

> <PUBCHEM_HEAVY_ATOM_COUNT>
39

> <PUBCHEM_ATOM_DEF_STEREO_COUNT>
0

> <PUBCHEM_ATOM_UDEF_STEREO_COUNT>
1

> <PUBCHEM_BOND_DEF_STEREO_COUNT>
0

> <PUBCHEM_BOND_UDEF_STEREO_COUNT>
0

> <PUBCHEM_ISOTOPIC_ATOM_COUNT>
0

> <PUBCHEM_COMPONENT_COUNT>
1

> <PUBCHEM_CACTVS_TAUTO_COUNT>
-1

> <PUBCHEM_CONFORMER_ID>
083448A400000004

> <PUBCHEM_MMFF94_ENERGY>
108.4029

> <PUBCHEM_FEATURE_SELFOVERLAP>
60.91

> <PUBCHEM_SHAPE_FINGERPRINT>
11434127 23 17604153631664034992
12128747 34 18188219697470393938
12156800 1 17972071156109207494
13761468 95 17915769593835887968
14279260 333 18262516993132201626
14747282 140 15382192815636618657
15320467 1 18334017163853284864
15484559 13 17761489189038944876
15968369 153 18198046178646930696
19309040 13 16842782425865842857
20764821 26 18049147067071508952
21223535 225 18411697717281496878
21860390 5 17547840859652472287
3493558 16 16013002187235250628
50677037 204 17907856559049219540
550186 7 18336842917352684807
5951187 136 17187843122204732053
6608658 132 18267581497474700999

> <PUBCHEM_SHAPE_MULTIPOLES>
747.61
11.73
7.04
2.9
17.99
4.92
-2.51
7.03
1.88
-5.32
-1.15
-3.41
-3.22
0.31

> <PUBCHEM_SHAPE_SELFOVERLAP>
1586.033

> <PUBCHEM_SHAPE_VOLUME>
421.7

> <PUBCHEM_COORDINATE_TYPE>
2
5
10

$$$$