89566371
  -OEChem-03242010103D

 48 49  0     0  0  0  0  0  0999 V2000
   -5.8007   -1.9544   -1.1720 S   0  0  0  0  0  0  0  0  0  0  0  0
    6.2361    0.8825   -0.6246 O   0  0  0  0  0  0  0  0  0  0  0  0
    5.7987   -1.8332   -0.2966 O   0  0  0  0  0  0  0  0  0  0  0  0
    4.1530    2.6638   -0.2332 O   0  0  0  0  0  0  0  0  0  0  0  0
    1.0255   -2.0520    1.4652 O   0  0  0  0  0  0  0  0  0  0  0  0
    2.4734   -0.5106    0.4481 C   0  0  0  0  0  0  0  0  0  0  0  0
    5.0011    0.4247   -0.2721 C   0  0  0  0  0  0  0  0  0  0  0  0
    4.7844   -0.9433   -0.1081 C   0  0  0  0  0  0  0  0  0  0  0  0
    3.9541    1.3252   -0.0760 C   0  0  0  0  0  0  0  0  0  0  0  0
    3.5206   -1.4109    0.2520 C   0  0  0  0  0  0  0  0  0  0  0  0
    2.6902    0.8575    0.2841 C   0  0  0  0  0  0  0  0  0  0  0  0
    1.1296   -1.0087    0.8296 C   0  0  0  0  0  0  0  0  0  0  0  0
   -4.9636    0.3386    0.1968 C   0  0  0  0  0  0  0  0  0  0  0  0
   -0.0527   -0.2204    0.3858 C   0  0  0  0  0  0  0  0  0  0  0  0
   -5.9523   -0.2719   -0.5746 C   0  0  0  0  0  0  0  0  0  0  0  0
   -3.7309   -0.3431    0.5776 C   0  0  0  0  0  0  0  0  0  0  0  0
   -5.1329    1.6517    0.6359 C   0  0  0  0  0  0  0  0  0  0  0  0
   -1.2885   -0.6419    0.6890 C   0  0  0  0  0  0  0  0  0  0  0  0
   -2.4805    0.0707    0.2786 C   0  0  0  0  0  0  0  0  0  0  0  0
   -7.1105    0.4306   -0.9071 C   0  0  0  0  0  0  0  0  0  0  0  0
   -6.2912    2.3543    0.3034 C   0  0  0  0  0  0  0  0  0  0  0  0
   -7.2801    1.7437   -0.4680 C   0  0  0  0  0  0  0  0  0  0  0  0
    6.5078    1.0016   -2.0193 C   0  0  0  0  0  0  0  0  0  0  0  0
    5.4926   -3.2135   -0.1089 C   0  0  0  0  0  0  0  0  0  0  0  0
    4.5613    3.3978    0.9196 C   0  0  0  0  0  0  0  0  0  0  0  0
   -7.2444   -2.7389   -0.4052 C   0  0  0  0  0  0  0  0  0  0  0  0
    3.2972   -2.4639    0.3858 H   0  0  0  0  0  0  0  0  0  0  0  0
    1.9074    1.5893    0.4616 H   0  0  0  0  0  0  0  0  0  0  0  0
    0.0863    0.6671   -0.2204 H   0  0  0  0  0  0  0  0  0  0  0  0
   -3.8695   -1.2613    1.1456 H   0  0  0  0  0  0  0  0  0  0  0  0
   -4.3791    2.1478    1.2431 H   0  0  0  0  0  0  0  0  0  0  0  0
   -1.4383   -1.5451    1.2749 H   0  0  0  0  0  0  0  0  0  0  0  0
   -2.3398    0.9826   -0.2975 H   0  0  0  0  0  0  0  0  0  0  0  0
   -7.8931   -0.0163   -1.5152 H   0  0  0  0  0  0  0  0  0  0  0  0
   -6.4238    3.3765    0.6457 H   0  0  0  0  0  0  0  0  0  0  0  0
   -8.1809    2.2917   -0.7284 H   0  0  0  0  0  0  0  0  0  0  0  0
    7.5281    1.3762   -2.1385 H   0  0  0  0  0  0  0  0  0  0  0  0
    5.8182    1.7113   -2.4870 H   0  0  0  0  0  0  0  0  0  0  0  0
    6.4337    0.0266   -2.5112 H   0  0  0  0  0  0  0  0  0  0  0  0
    4.7523   -3.5657   -0.8353 H   0  0  0  0  0  0  0  0  0  0  0  0
    5.1989   -3.4256    0.9249 H   0  0  0  0  0  0  0  0  0  0  0  0
    6.4134   -3.7753   -0.2978 H   0  0  0  0  0  0  0  0  0  0  0  0
    3.7986    3.3376    1.7024 H   0  0  0  0  0  0  0  0  0  0  0  0
    5.5178    3.0225    1.2968 H   0  0  0  0  0  0  0  0  0  0  0  0
    4.6857    4.4454    0.6322 H   0  0  0  0  0  0  0  0  0  0  0  0
   -7.2114   -3.8143   -0.5996 H   0  0  0  0  0  0  0  0  0  0  0  0
   -8.1729   -2.3420   -0.8233 H   0  0  0  0  0  0  0  0  0  0  0  0
   -7.2349   -2.5803    0.6766 H   0  0  0  0  0  0  0  0  0  0  0  0
  1 15  1  0  0  0  0
  1 26  1  0  0  0  0
  2  7  1  0  0  0  0
  2 23  1  0  0  0  0
  3  8  1  0  0  0  0
  3 24  1  0  0  0  0
  4  9  1  0  0  0  0
  4 25  1  0  0  0  0
  5 12  2  0  0  0  0
  6 10  2  0  0  0  0
  6 11  1  0  0  0  0
  6 12  1  0  0  0  0
  7  8  2  0  0  0  0
  7  9  1  0  0  0  0
  8 10  1  0  0  0  0
  9 11  2  0  0  0  0
 10 27  1  0  0  0  0
 11 28  1  0  0  0  0
 12 14  1  0  0  0  0
 13 15  1  0  0  0  0
 13 16  1  0  0  0  0
 13 17  2  0  0  0  0
 14 18  2  0  0  0  0
 14 29  1  0  0  0  0
 15 20  2  0  0  0  0
 16 19  2  0  0  0  0
 16 30  1  0  0  0  0
 17 21  1  0  0  0  0
 17 31  1  0  0  0  0
 18 19  1  0  0  0  0
 18 32  1  0  0  0  0
 19 33  1  0  0  0  0
 20 22  1  0  0  0  0
 20 34  1  0  0  0  0
 21 22  2  0  0  0  0
 21 35  1  0  0  0  0
 22 36  1  0  0  0  0
 23 37  1  0  0  0  0
 23 38  1  0  0  0  0
 23 39  1  0  0  0  0
 24 40  1  0  0  0  0
 24 41  1  0  0  0  0
 24 42  1  0  0  0  0
 25 43  1  0  0  0  0
 25 44  1  0  0  0  0
 25 45  1  0  0  0  0
 26 46  1  0  0  0  0
 26 47  1  0  0  0  0
 26 48  1  0  0  0  0
M  END
> <PUBCHEM_COMPOUND_CID>
89566371

> <PUBCHEM_CONFORMER_RMSD>
0.8

> <PUBCHEM_CONFORMER_DIVERSEORDER>
5
43
33
44
45
60
78
98
46
3
49
48
61
64
111
22
67
85
59
92
56
38
109
1
72
94
19
17
39
70
113
107
81
110
18
62
105
28
52
74
82
104
47
41
12
23
2
54
93
99
14
103
97
8
32
108
96
77
34
83
35
65
90
57
16
10
106
30
58
100
6
114
36
11
91
79
68
102
31
24
15
50
9
76
42
26
89
4
95
101
29
7
71
84
63
13
20
80
51
87
66
37
75
73
21
53
88
86
55
27
112
69
40
25

> <PUBCHEM_MMFF94_PARTIAL_CHARGES>
36
1 -0.33
10 -0.15
11 -0.15
12 0.47
13 0.03
14 -0.14
15 0.1
16 -0.18
17 -0.15
18 -0.15
19 -0.15
2 -0.36
20 -0.15
21 -0.15
22 -0.15
23 0.28
24 0.28
25 0.28
26 0.23
27 0.15
28 0.15
29 0.15
3 -0.36
30 0.15
31 0.15
32 0.15
33 0.15
34 0.15
35 0.15
36 0.15
4 -0.36
5 -0.57
6 0.09
7 0.08
8 0.08
9 0.08

> <PUBCHEM_EFFECTIVE_ROTOR_COUNT>
8

> <PUBCHEM_PHARMACOPHORE_FEATURES>
7
1 2 acceptor
1 26 hydrophobe
1 3 acceptor
1 4 acceptor
1 5 acceptor
6 13 15 17 20 21 22 rings
6 6 7 8 9 10 11 rings

> <PUBCHEM_HEAVY_ATOM_COUNT>
26

> <PUBCHEM_ATOM_DEF_STEREO_COUNT>
0

> <PUBCHEM_ATOM_UDEF_STEREO_COUNT>
0

> <PUBCHEM_BOND_DEF_STEREO_COUNT>
2

> <PUBCHEM_BOND_UDEF_STEREO_COUNT>
0

> <PUBCHEM_ISOTOPIC_ATOM_COUNT>
0

> <PUBCHEM_COMPONENT_COUNT>
1

> <PUBCHEM_CACTVS_TAUTO_COUNT>
1

> <PUBCHEM_CONFORMER_ID>
0556ACA300000005

> <PUBCHEM_MMFF94_ENERGY>
108.0314

> <PUBCHEM_FEATURE_SELFOVERLAP>
35.532

> <PUBCHEM_SHAPE_FINGERPRINT>
10 15 12540704700069908883
10595046 47 18413105091590043587
11719270 70 17560516201179928166
12236239 1 18412824672932798475
12596602 18 18412259567311846765
13533116 47 18409731734076092744
13685833 64 11527946755216507409
13690498 29 18201428243220406279
14528608 73 18408601474587605747
14931854 50 18339939160014914516
14933364 13 18409730656197725905
15064986 266 18335425682442850291
15183329 4 18060424590465452737
15475509 35 14045470973811410102
1577012 14 18411420600794485497
18335252 114 18337386041699923756
21033648 29 17822294638749844984
221357 26 18336547119150489956
23081809 10 18333447634246920419
249057 25 17917156008978584120
255183 451 17909552758052513302
29717793 49 18201439134202258230
3004659 81 18271520905729184498
335352 9 18335708261236244254
394071 54 16732990855256018188
4073 2 17967822664491222339
4340502 62 12324243884485589560
44317340 157 18272085032899166753
44555599 121 18270125604457993649
497634 4 18410287013661080909

> <PUBCHEM_SHAPE_MULTIPOLES>
515.44
24.21
3.2
1.11
18.01
0.15
0.28
1.84
8.1
-1.48
-0.22
-0.64
0.02
-1.15

> <PUBCHEM_SHAPE_SELFOVERLAP>
1068.808

> <PUBCHEM_SHAPE_VOLUME>
297.3

> <PUBCHEM_COORDINATE_TYPE>
2
5
10

$$$$