6012476
  -OEChem-03242010103D

 45 47  0     0  0  0  0  0  0999 V2000
    1.3360    3.0926   -0.4016 O   0  0  0  0  0  0  0  0  0  0  0  0
    4.7869   -2.3206    0.2788 O   0  0  0  0  0  0  0  0  0  0  0  0
    5.8384    0.2248   -0.0522 O   0  0  0  0  0  0  0  0  0  0  0  0
   -6.2000   -1.0455    0.1569 N   0  0  0  0  0  0  0  0  0  0  0  0
    0.2393   -0.3330    0.0429 C   0  0  0  0  0  0  0  0  0  0  0  0
    1.7381   -0.3569    0.0404 C   0  0  0  0  0  0  0  0  0  0  0  0
   -0.0749    1.1295   -0.1441 C   0  0  0  0  0  0  0  0  0  0  0  0
    2.2845    0.9176   -0.1255 C   0  0  0  0  0  0  0  0  0  0  0  0
    1.2017    1.8963   -0.2473 C   0  0  0  0  0  0  0  0  0  0  0  0
    2.5707   -1.4545    0.1776 C   0  0  0  0  0  0  0  0  0  0  0  0
    3.6473    1.1474   -0.1605 C   0  0  0  0  0  0  0  0  0  0  0  0
   -1.2748    1.7081   -0.2137 C   0  0  0  0  0  0  0  0  0  0  0  0
    3.9538   -1.2486    0.1453 C   0  0  0  0  0  0  0  0  0  0  0  0
    4.4872    0.0417   -0.0223 C   0  0  0  0  0  0  0  0  0  0  0  0
   -2.5244    1.0097   -0.1193 C   0  0  0  0  0  0  0  0  0  0  0  0
   -3.1357    0.4758   -1.2661 C   0  0  0  0  0  0  0  0  0  0  0  0
   -3.1629    0.8452    1.1213 C   0  0  0  0  0  0  0  0  0  0  0  0
   -4.9721   -0.3577    0.0642 C   0  0  0  0  0  0  0  0  0  0  0  0
   -4.3508   -0.2029   -1.1751 C   0  0  0  0  0  0  0  0  0  0  0  0
   -4.3779    0.1663    1.2124 C   0  0  0  0  0  0  0  0  0  0  0  0
   -6.8247   -1.5951   -1.0298 C   0  0  0  0  0  0  0  0  0  0  0  0
   -6.8462   -1.2234    1.4420 C   0  0  0  0  0  0  0  0  0  0  0  0
    5.1756   -2.9897   -0.9182 C   0  0  0  0  0  0  0  0  0  0  0  0
    6.4849    0.4729    1.1938 C   0  0  0  0  0  0  0  0  0  0  0  0
   -0.1491   -0.9316   -0.7870 H   0  0  0  0  0  0  0  0  0  0  0  0
   -0.1430   -0.7016    1.0000 H   0  0  0  0  0  0  0  0  0  0  0  0
    2.1592   -2.4504    0.3075 H   0  0  0  0  0  0  0  0  0  0  0  0
    4.0501    2.1457   -0.2911 H   0  0  0  0  0  0  0  0  0  0  0  0
   -1.3540    2.7838   -0.3494 H   0  0  0  0  0  0  0  0  0  0  0  0
   -2.6660    0.5867   -2.2414 H   0  0  0  0  0  0  0  0  0  0  0  0
   -2.7145    1.2473    2.0276 H   0  0  0  0  0  0  0  0  0  0  0  0
   -4.7718   -0.5923   -2.0967 H   0  0  0  0  0  0  0  0  0  0  0  0
   -4.8208    0.0723    2.1990 H   0  0  0  0  0  0  0  0  0  0  0  0
   -7.0599   -0.8077   -1.7545 H   0  0  0  0  0  0  0  0  0  0  0  0
   -7.7717   -2.0938   -0.7948 H   0  0  0  0  0  0  0  0  0  0  0  0
   -6.1843   -2.3490   -1.5010 H   0  0  0  0  0  0  0  0  0  0  0  0
   -7.0987   -0.2582    1.8953 H   0  0  0  0  0  0  0  0  0  0  0  0
   -6.2126   -1.7969    2.1278 H   0  0  0  0  0  0  0  0  0  0  0  0
   -7.7863   -1.7785    1.3490 H   0  0  0  0  0  0  0  0  0  0  0  0
    5.7121   -2.3075   -1.5852 H   0  0  0  0  0  0  0  0  0  0  0  0
    4.2997   -3.4027   -1.4287 H   0  0  0  0  0  0  0  0  0  0  0  0
    5.8437   -3.8125   -0.6494 H   0  0  0  0  0  0  0  0  0  0  0  0
    7.5560    0.5883    1.0071 H   0  0  0  0  0  0  0  0  0  0  0  0
    6.3380   -0.3679    1.8790 H   0  0  0  0  0  0  0  0  0  0  0  0
    6.1070    1.3958    1.6448 H   0  0  0  0  0  0  0  0  0  0  0  0
  1  9  2  0  0  0  0
  2 13  1  0  0  0  0
  2 23  1  0  0  0  0
  3 14  1  0  0  0  0
  3 24  1  0  0  0  0
  4 18  1  0  0  0  0
  4 21  1  0  0  0  0
  4 22  1  0  0  0  0
  5  6  1  0  0  0  0
  5  7  1  0  0  0  0
  5 25  1  0  0  0  0
  5 26  1  0  0  0  0
  6  8  1  0  0  0  0
  6 10  2  0  0  0  0
  7  9  1  0  0  0  0
  7 12  2  0  0  0  0
  8  9  1  0  0  0  0
  8 11  2  0  0  0  0
 10 13  1  0  0  0  0
 10 27  1  0  0  0  0
 11 14  1  0  0  0  0
 11 28  1  0  0  0  0
 12 15  1  0  0  0  0
 12 29  1  0  0  0  0
 13 14  2  0  0  0  0
 15 16  2  0  0  0  0
 15 17  1  0  0  0  0
 16 19  1  0  0  0  0
 16 30  1  0  0  0  0
 17 20  2  0  0  0  0
 17 31  1  0  0  0  0
 18 19  2  0  0  0  0
 18 20  1  0  0  0  0
 19 32  1  0  0  0  0
 20 33  1  0  0  0  0
 21 34  1  0  0  0  0
 21 35  1  0  0  0  0
 21 36  1  0  0  0  0
 22 37  1  0  0  0  0
 22 38  1  0  0  0  0
 22 39  1  0  0  0  0
 23 40  1  0  0  0  0
 23 41  1  0  0  0  0
 23 42  1  0  0  0  0
 24 43  1  0  0  0  0
 24 44  1  0  0  0  0
 24 45  1  0  0  0  0
M  END
> <PUBCHEM_COMPOUND_CID>
6012476

> <PUBCHEM_CONFORMER_RMSD>
0.8

> <PUBCHEM_CONFORMER_DIVERSEORDER>
1
3
2

> <PUBCHEM_MMFF94_PARTIAL_CHARGES>
31
1 -0.57
10 -0.15
11 -0.15
12 -0.18
13 0.08
14 0.08
15 0.03
16 -0.15
17 -0.15
18 0.1
19 -0.15
2 -0.36
20 -0.15
21 0.37
22 0.37
23 0.28
24 0.28
27 0.15
28 0.15
29 0.15
3 -0.36
30 0.15
31 0.15
32 0.15
33 0.15
4 -0.84
5 0.28
6 -0.14
7 -0.12
8 0.09
9 0.47

> <PUBCHEM_EFFECTIVE_ROTOR_COUNT>
4.2

> <PUBCHEM_PHARMACOPHORE_FEATURES>
7
1 1 acceptor
1 2 acceptor
1 3 acceptor
1 4 cation
5 5 6 7 8 9 rings
6 15 16 17 18 19 20 rings
6 6 8 10 11 13 14 rings

> <PUBCHEM_HEAVY_ATOM_COUNT>
24

> <PUBCHEM_ATOM_DEF_STEREO_COUNT>
0

> <PUBCHEM_ATOM_UDEF_STEREO_COUNT>
0

> <PUBCHEM_BOND_DEF_STEREO_COUNT>
1

> <PUBCHEM_BOND_UDEF_STEREO_COUNT>
0

> <PUBCHEM_ISOTOPIC_ATOM_COUNT>
0

> <PUBCHEM_COMPONENT_COUNT>
1

> <PUBCHEM_CACTVS_TAUTO_COUNT>
1

> <PUBCHEM_CONFORMER_ID>
005BBE3C00000001

> <PUBCHEM_MMFF94_ENERGY>
105.265

> <PUBCHEM_FEATURE_SELFOVERLAP>
35.609

> <PUBCHEM_SHAPE_FINGERPRINT>
106641 1 17703785972504067760
11089746 13 11602537637045816695
11578080 2 17129568309873667586
11963148 33 18261667155926585218
12166972 35 18273217516732515537
12236239 1 18060423547247368145
12516196 113 18411135831414653360
12596602 18 17632297852137312946
12623949 98 17988371347736026030
12633257 1 15554440834349246649
13073987 5 18273214153957446448
13402501 40 18114186354252009835
13533116 47 18342177808074146193
13544653 18 18334298621829181756
13685833 64 18261114093029011705
13782708 43 17530963592462866395
13862211 1 18334292059408972480
13955234 65 18196653119043226305
14251740 57 18271529693865307174
14341114 176 18342460335259770007
14350574 20 18114181960463217541
14849402 71 17631164376441716152
15064981 113 14273725223001947523
15196674 1 18338233748375446868
15510800 12 18040445377541244010
15537594 2 18273209820050796871
15880784 105 18201160949170496834
17492 89 18193835930251270062
17857418 61 18413671327193446251
17870717 6 16805044021804934427
1813 80 18340781359408273652
19377110 9 17918275359081171616
19489759 90 15791727499501633261
19784866 240 18408608050546506789
200 152 18411698790480222641
20028762 73 18272368655096515503
20281389 69 10663818568573453091
20645477 70 18186800304946137964
20715895 44 8934992664631162198
21267235 1 18411423895414196780
21623969 137 18335422369878177250
21682296 61 18340212868883814391
22149856 69 18341061730578025384
22393880 68 17822281350094358189
23522609 53 18124630580396635544
23559900 14 16660928902074483269
314194 84 18413387644049755071
34797466 226 16515695480180828725
351380 3 18272367585965273223
3663271 9 17775288248460681539
4340502 62 15841554072580796228
46194498 28 17458625661182110085
465052 167 18413394236856281207
50009960 94 17534887599493005058
5104073 3 18198618840059608752
5385378 56 10807949158138548628
5718773 13 18116146684795272578
59682541 35 18410568531397801152
59755656 520 11455889157422234677
7970288 3 18411418367422872639

> <PUBCHEM_SHAPE_MULTIPOLES>
471.32
17.6
2.38
1.11
9.75
0.42
0.11
10.61
2.51
-2.56
-0.48
1.26
0.15
0.41

> <PUBCHEM_SHAPE_SELFOVERLAP>
1020.917

> <PUBCHEM_SHAPE_VOLUME>
262.7

> <PUBCHEM_COORDINATE_TYPE>
2
5
10

$$$$