122185098
  -OEChem-03242010103D

 83 87  0     0  0  0  0  0  0999 V2000
   10.3956    0.3863    2.5572 S   0  0  0  0  0  0  0  0  0  0  0  0
   -0.2306   -3.3781   -2.3062 O   0  0  0  0  0  0  0  0  0  0  0  0
    5.4447    1.4396   -1.8499 O   0  0  0  0  0  0  0  0  0  0  0  0
   -0.9474    0.6255   -2.1469 O   0  0  0  0  0  0  0  0  0  0  0  0
   -2.2305   -3.3742   -0.2709 O   0  0  0  0  0  0  0  0  0  0  0  0
   -7.9797   -1.2346    0.4146 O   0  0  0  0  0  0  0  0  0  0  0  0
   -4.4977    3.7055    1.9039 O   0  0  0  0  0  0  0  0  0  0  0  0
   -5.3395    4.9935   -0.4114 O   0  0  0  0  0  0  0  0  0  0  0  0
   -7.6624   -2.2313    2.9903 O   0  0  0  0  0  0  0  0  0  0  0  0
   10.0598    1.2785    3.6586 O   0  0  0  0  0  0  0  0  0  0  0  0
   10.7552   -0.9975    2.8322 O   0  0  0  0  0  0  0  0  0  0  0  0
    3.8258   -0.7708   -2.1160 N   0  0  0  0  0  0  0  0  0  0  0  0
    1.0424   -1.4420   -2.1174 N   0  0  0  0  0  0  0  0  0  0  0  0
   -1.1856   -1.5497   -1.2982 N   0  0  0  0  0  0  0  0  0  0  0  0
    3.3260   -1.8829   -2.9382 C   0  0  0  0  0  0  0  0  0  0  0  0
    3.0294   -0.6414   -0.8870 C   0  0  0  0  0  0  0  0  0  0  0  0
    1.5508   -0.4083   -1.2087 C   0  0  0  0  0  0  0  0  0  0  0  0
    1.8609   -1.6591   -3.3088 C   0  0  0  0  0  0  0  0  0  0  0  0
    5.2390   -0.9650   -1.7944 C   0  0  0  0  0  0  0  0  0  0  0  0
   -0.1086   -2.2164   -1.9036 C   0  0  0  0  0  0  0  0  0  0  0  0
    5.8453    0.3689   -1.3981 C   0  0  0  0  0  0  0  0  0  0  0  0
   -1.5177   -0.2229   -1.4797 C   0  0  0  0  0  0  0  0  0  0  0  0
   -2.1647   -2.1953   -0.5812 C   0  0  0  0  0  0  0  0  0  0  0  0
   -3.1613   -1.1667   -0.1956 C   0  0  0  0  0  0  0  0  0  0  0  0
   -2.7783    0.0054   -0.7320 C   0  0  0  0  0  0  0  0  0  0  0  0
    6.9730    0.3737   -0.4191 C   0  0  0  0  0  0  0  0  0  0  0  0
   -3.4457    1.3060   -0.6454 C   0  0  0  0  0  0  0  0  0  0  0  0
   -4.3366   -1.4436    0.6326 C   0  0  0  0  0  0  0  0  0  0  0  0
    7.8468   -0.7118   -0.3563 C   0  0  0  0  0  0  0  0  0  0  0  0
    7.1519    1.4632    0.4334 C   0  0  0  0  0  0  0  0  0  0  0  0
   -3.6592    1.8982    0.5993 C   0  0  0  0  0  0  0  0  0  0  0  0
   -5.6156   -1.2065    0.1291 C   0  0  0  0  0  0  0  0  0  0  0  0
   -4.1776   -1.9438    1.9250 C   0  0  0  0  0  0  0  0  0  0  0  0
   -3.8679    1.9525   -1.8069 C   0  0  0  0  0  0  0  0  0  0  0  0
    9.0785    0.3818    1.4113 C   0  0  0  0  0  0  0  0  0  0  0  0
    8.8995   -0.7077    0.5587 C   0  0  0  0  0  0  0  0  0  0  0  0
    8.2046    1.4672    1.3487 C   0  0  0  0  0  0  0  0  0  0  0  0
   -6.7357   -1.4700    0.9176 C   0  0  0  0  0  0  0  0  0  0  0  0
   -4.2949    3.1370    0.6825 C   0  0  0  0  0  0  0  0  0  0  0  0
   -5.2977   -2.2069    2.7137 C   0  0  0  0  0  0  0  0  0  0  0  0
   -4.5039    3.1912   -1.7238 C   0  0  0  0  0  0  0  0  0  0  0  0
   -6.5767   -1.9700    2.2101 C   0  0  0  0  0  0  0  0  0  0  0  0
   -4.7174    3.7835   -0.4791 C   0  0  0  0  0  0  0  0  0  0  0  0
   11.7459    1.1373    1.6763 C   0  0  0  0  0  0  0  0  0  0  0  0
   -8.0549   -0.7232   -0.9147 C   0  0  0  0  0  0  0  0  0  0  0  0
   -4.0358    2.9792    3.0412 C   0  0  0  0  0  0  0  0  0  0  0  0
   -5.7394    5.5864   -1.6456 C   0  0  0  0  0  0  0  0  0  0  0  0
   -7.4122   -2.7408    4.2989 C   0  0  0  0  0  0  0  0  0  0  0  0
    3.4314   -2.8360   -2.4032 H   0  0  0  0  0  0  0  0  0  0  0  0
    3.9065   -1.9570   -3.8656 H   0  0  0  0  0  0  0  0  0  0  0  0
    3.3804    0.2026   -0.2820 H   0  0  0  0  0  0  0  0  0  0  0  0
    3.1238   -1.5462   -0.2713 H   0  0  0  0  0  0  0  0  0  0  0  0
    1.4398    0.5628   -1.7035 H   0  0  0  0  0  0  0  0  0  0  0  0
    0.9714   -0.4021   -0.2803 H   0  0  0  0  0  0  0  0  0  0  0  0
    1.4806   -2.5101   -3.8835 H   0  0  0  0  0  0  0  0  0  0  0  0
    1.7563   -0.7671   -3.9386 H   0  0  0  0  0  0  0  0  0  0  0  0
    5.3652   -1.7161   -1.0068 H   0  0  0  0  0  0  0  0  0  0  0  0
    5.7974   -1.2947   -2.6796 H   0  0  0  0  0  0  0  0  0  0  0  0
    7.7426   -1.5655   -1.0199 H   0  0  0  0  0  0  0  0  0  0  0  0
    6.4789    2.3159    0.4008 H   0  0  0  0  0  0  0  0  0  0  0  0
   -3.3018    1.3596    1.4710 H   0  0  0  0  0  0  0  0  0  0  0  0
   -5.6852   -0.8279   -0.8855 H   0  0  0  0  0  0  0  0  0  0  0  0
   -3.1873   -2.1300    2.3339 H   0  0  0  0  0  0  0  0  0  0  0  0
   -3.7137    1.5024   -2.7847 H   0  0  0  0  0  0  0  0  0  0  0  0
    9.5741   -1.5589    0.5829 H   0  0  0  0  0  0  0  0  0  0  0  0
    8.3286    2.3281    1.9996 H   0  0  0  0  0  0  0  0  0  0  0  0
   -4.8056    3.6337   -2.6668 H   0  0  0  0  0  0  0  0  0  0  0  0
   -5.0979   -2.5929    3.7073 H   0  0  0  0  0  0  0  0  0  0  0  0
   11.9748    0.5338    0.7960 H   0  0  0  0  0  0  0  0  0  0  0  0
   11.4627    2.1517    1.3891 H   0  0  0  0  0  0  0  0  0  0  0  0
   12.6107    1.1665    2.3426 H   0  0  0  0  0  0  0  0  0  0  0  0
   -9.1164   -0.5927   -1.1496 H   0  0  0  0  0  0  0  0  0  0  0  0
   -4.2827    3.5756    3.9258 H   0  0  0  0  0  0  0  0  0  0  0  0
   -7.6540   -1.4349   -1.6446 H   0  0  0  0  0  0  0  0  0  0  0  0
   -7.5890    0.2651   -0.9946 H   0  0  0  0  0  0  0  0  0  0  0  0
   -2.9466    2.8631    3.0312 H   0  0  0  0  0  0  0  0  0  0  0  0
   -4.5575    2.0220    3.1488 H   0  0  0  0  0  0  0  0  0  0  0  0
   -6.4903    4.9779   -2.1610 H   0  0  0  0  0  0  0  0  0  0  0  0
   -6.9212   -3.7193    4.2640 H   0  0  0  0  0  0  0  0  0  0  0  0
   -4.8776    5.8134   -2.2824 H   0  0  0  0  0  0  0  0  0  0  0  0
   -6.8632   -2.0200    4.9145 H   0  0  0  0  0  0  0  0  0  0  0  0
   -8.3855   -2.8908    4.7777 H   0  0  0  0  0  0  0  0  0  0  0  0
   -6.2164    6.5421   -1.4042 H   0  0  0  0  0  0  0  0  0  0  0  0
  1 10  2  0  0  0  0
  1 11  2  0  0  0  0
  1 35  1  0  0  0  0
  1 44  1  0  0  0  0
  2 20  2  0  0  0  0
  3 21  2  0  0  0  0
  4 22  2  0  0  0  0
  5 23  2  0  0  0  0
  6 38  1  0  0  0  0
  6 45  1  0  0  0  0
  7 39  1  0  0  0  0
  7 46  1  0  0  0  0
  8 43  1  0  0  0  0
  8 47  1  0  0  0  0
  9 42  1  0  0  0  0
  9 48  1  0  0  0  0
 12 15  1  0  0  0  0
 12 16  1  0  0  0  0
 12 19  1  0  0  0  0
 13 17  1  0  0  0  0
 13 18  1  0  0  0  0
 13 20  1  0  0  0  0
 14 20  1  0  0  0  0
 14 22  1  0  0  0  0
 14 23  1  0  0  0  0
 15 18  1  0  0  0  0
 15 49  1  0  0  0  0
 15 50  1  0  0  0  0
 16 17  1  0  0  0  0
 16 51  1  0  0  0  0
 16 52  1  0  0  0  0
 17 53  1  0  0  0  0
 17 54  1  0  0  0  0
 18 55  1  0  0  0  0
 18 56  1  0  0  0  0
 19 21  1  0  0  0  0
 19 57  1  0  0  0  0
 19 58  1  0  0  0  0
 21 26  1  0  0  0  0
 22 25  1  0  0  0  0
 23 24  1  0  0  0  0
 24 25  2  0  0  0  0
 24 28  1  0  0  0  0
 25 27  1  0  0  0  0
 26 29  2  0  0  0  0
 26 30  1  0  0  0  0
 27 31  2  0  0  0  0
 27 34  1  0  0  0  0
 28 32  2  0  0  0  0
 28 33  1  0  0  0  0
 29 36  1  0  0  0  0
 29 59  1  0  0  0  0
 30 37  2  0  0  0  0
 30 60  1  0  0  0  0
 31 39  1  0  0  0  0
 31 61  1  0  0  0  0
 32 38  1  0  0  0  0
 32 62  1  0  0  0  0
 33 40  2  0  0  0  0
 33 63  1  0  0  0  0
 34 41  2  0  0  0  0
 34 64  1  0  0  0  0
 35 36  2  0  0  0  0
 35 37  1  0  0  0  0
 36 65  1  0  0  0  0
 37 66  1  0  0  0  0
 38 42  2  0  0  0  0
 39 43  2  0  0  0  0
 40 42  1  0  0  0  0
 40 68  1  0  0  0  0
 41 43  1  0  0  0  0
 41 67  1  0  0  0  0
 44 69  1  0  0  0  0
 44 70  1  0  0  0  0
 44 71  1  0  0  0  0
 45 72  1  0  0  0  0
 45 74  1  0  0  0  0
 45 75  1  0  0  0  0
 46 73  1  0  0  0  0
 46 76  1  0  0  0  0
 46 77  1  0  0  0  0
 47 78  1  0  0  0  0
 47 80  1  0  0  0  0
 47 83  1  0  0  0  0
 48 79  1  0  0  0  0
 48 81  1  0  0  0  0
 48 82  1  0  0  0  0
M  END
> <PUBCHEM_COMPOUND_CID>
122185098

> <PUBCHEM_CONFORMER_RMSD>
1.4

> <PUBCHEM_CONFORMER_DIVERSEORDER>
4
63
20
67
6
54
60
85
22
10
19
57
74
50
90
73
89
32
44
18
14
17
28
93
48
75
16
68
58
46
83
9
38
72
1
15
79
11
65
5
23
31
47
56
29
24
7
40
53
21
70
33
13
66
64
61
27
77
35
59
12
82
45
84
3
30
87
86
51
78
69
92
80
8
25
37
49
62
2
91
55
34
26
76
41
71
52
81
43
39
88
42
36

> <PUBCHEM_MMFF94_PARTIAL_CHARGES>
58
1 1.2
10 -0.65
11 -0.65
12 -0.81
13 -0.66
14 -0.18
15 0.27
16 0.27
17 0.3
18 0.3
19 0.33
2 -0.57
20 0.69
21 0.42
22 0.62
23 0.62
24 -0.01
25 -0.01
26 0.09
27 0.03
28 0.03
29 -0.15
3 -0.57
30 -0.15
31 -0.15
32 -0.15
33 -0.15
34 -0.15
35 -0.01
36 -0.15
37 -0.15
38 0.08
39 0.08
4 -0.57
40 -0.15
41 -0.15
42 0.08
43 0.08
44 0.11
45 0.28
46 0.28
47 0.28
48 0.28
5 -0.57
59 0.15
6 -0.36
60 0.15
61 0.15
62 0.15
63 0.15
64 0.15
65 0.15
66 0.15
67 0.15
68 0.15
7 -0.36
8 -0.36
9 -0.36

> <PUBCHEM_EFFECTIVE_ROTOR_COUNT>
13.4

> <PUBCHEM_PHARMACOPHORE_FEATURES>
16
1 10 acceptor
1 11 acceptor
1 12 cation
1 2 acceptor
1 3 acceptor
1 4 acceptor
1 5 acceptor
1 6 acceptor
1 7 acceptor
1 8 acceptor
1 9 acceptor
5 14 22 23 24 25 rings
6 12 13 15 16 17 18 rings
6 26 29 30 35 36 37 rings
6 27 31 34 39 41 43 rings
6 28 32 33 38 40 42 rings

> <PUBCHEM_HEAVY_ATOM_COUNT>
48

> <PUBCHEM_ATOM_DEF_STEREO_COUNT>
0

> <PUBCHEM_ATOM_UDEF_STEREO_COUNT>
0

> <PUBCHEM_BOND_DEF_STEREO_COUNT>
0

> <PUBCHEM_BOND_UDEF_STEREO_COUNT>
0

> <PUBCHEM_ISOTOPIC_ATOM_COUNT>
0

> <PUBCHEM_COMPONENT_COUNT>
1

> <PUBCHEM_CACTVS_TAUTO_COUNT>
1

> <PUBCHEM_CONFORMER_ID>
0748658A00000004

> <PUBCHEM_MMFF94_ENERGY>
168.663

> <PUBCHEM_FEATURE_SELFOVERLAP>
81.241

> <PUBCHEM_SHAPE_FINGERPRINT>
10625338 86 18131625687016012546
10930396 42 18411701032511498387
10952577 141 13110699224205902979
11411753 3 18197797504309677655
11621639 254 15267339613679032377
12061779 8 14907914738352690286
12655364 131 15574711361931052537
12655364 74 15554177969312830769
12717326 25 12468644937242418525
13165054 27 16558764390497713185
13540713 4 18051719667273674807
13782708 43 11242265073320632412
16067689 68 17168137923898630818
19841028 212 15864356917006458854
2026 5 14563072725565292882
21647283 7 18411127070747389304
21814621 53 18337961078461962422
23569943 247 15357696422324089099
23576562 1 12031493338934105147
4616759 239 18260558839921041323

> <PUBCHEM_SHAPE_MULTIPOLES>
918.03
35.1
4.9
3.89
101.81
6.81
2.19
3.51
35.75
-15.83
0.27
1.38
-1.9
6.73

> <PUBCHEM_SHAPE_SELFOVERLAP>
1979.067

> <PUBCHEM_SHAPE_VOLUME>
507.9

> <PUBCHEM_COORDINATE_TYPE>
2
5
10

$$$$