122179387
  -OEChem-03242010103D

 71 74  0     1  0  0  0  0  0999 V2000
    3.2896    0.5157   -0.3324 O   0  0  0  0  0  0  0  0  0  0  0  0
   -0.1927   -0.7289   -0.2320 O   0  0  0  0  0  0  0  0  0  0  0  0
    3.5173   -4.3108   -0.0015 O   0  0  0  0  0  0  0  0  0  0  0  0
    7.4785   -1.6771   -0.1125 O   0  0  0  0  0  0  0  0  0  0  0  0
   -0.3077    4.4952   -2.2839 O   0  0  0  0  0  0  0  0  0  0  0  0
    0.6832    4.0746    2.3829 O   0  0  0  0  0  0  0  0  0  0  0  0
   -0.3676    5.5401    0.2803 O   0  0  0  0  0  0  0  0  0  0  0  0
   -0.7586   -1.4938    1.8733 O   0  0  0  0  0  0  0  0  0  0  0  0
   -8.8033   -1.6987   -0.7949 O   0  0  0  0  0  0  0  0  0  0  0  0
    1.1803   -0.6720    0.1403 C   0  0  2  0  0  0  0  0  0  0  0  0
    1.8939    0.4258   -0.6610 C   0  0  1  0  0  0  0  0  0  0  0  0
    1.8272   -2.0206   -0.1647 C   0  0  0  0  0  0  0  0  0  0  0  0
    3.3221   -1.9174   -0.1510 C   0  0  0  0  0  0  0  0  0  0  0  0
    1.2890    1.7944   -0.4089 C   0  0  0  0  0  0  0  0  0  0  0  0
    3.9592   -0.6755   -0.2465 C   0  0  0  0  0  0  0  0  0  0  0  0
    4.1008   -3.0797   -0.0698 C   0  0  0  0  0  0  0  0  0  0  0  0
    5.3543   -0.5956   -0.2221 C   0  0  0  0  0  0  0  0  0  0  0  0
    1.2614    2.3175    0.8837 C   0  0  0  0  0  0  0  0  0  0  0  0
    0.7605    2.5295   -1.4702 C   0  0  0  0  0  0  0  0  0  0  0  0
    5.4937   -2.9991   -0.0575 C   0  0  0  0  0  0  0  0  0  0  0  0
    6.1199   -1.7570   -0.1296 C   0  0  0  0  0  0  0  0  0  0  0  0
    0.2045    3.7876   -1.2387 C   0  0  0  0  0  0  0  0  0  0  0  0
    0.7055    3.5758    1.1153 C   0  0  0  0  0  0  0  0  0  0  0  0
    0.1770    4.3107    0.0541 C   0  0  0  0  0  0  0  0  0  0  0  0
   -1.0511   -1.1588    0.7364 C   0  0  0  0  0  0  0  0  0  0  0  0
   -2.4183   -1.1503    0.1686 C   0  0  0  0  0  0  0  0  0  0  0  0
    3.2568   -4.9717   -1.2374 C   0  0  0  0  0  0  0  0  0  0  0  0
    8.1997   -2.9045   -0.0162 C   0  0  0  0  0  0  0  0  0  0  0  0
   -1.6869    4.2948   -2.5880 C   0  0  0  0  0  0  0  0  0  0  0  0
    1.2442    3.2592    3.4099 C   0  0  0  0  0  0  0  0  0  0  0  0
   -3.4525   -1.5349    0.9300 C   0  0  0  0  0  0  0  0  0  0  0  0
    0.5091    6.6613    0.1951 C   0  0  0  0  0  0  0  0  0  0  0  0
   -4.8542   -1.5790    0.4772 C   0  0  0  0  0  0  0  0  0  0  0  0
   -5.2513   -0.8377   -0.6357 C   0  0  0  0  0  0  0  0  0  0  0  0
   -5.7842   -2.3611    1.1623 C   0  0  0  0  0  0  0  0  0  0  0  0
   -6.5783   -0.8781   -1.0633 C   0  0  0  0  0  0  0  0  0  0  0  0
   -7.1112   -2.4014    0.7348 C   0  0  0  0  0  0  0  0  0  0  0  0
   -7.5083   -1.6600   -0.3780 C   0  0  0  0  0  0  0  0  0  0  0  0
   -9.7014   -2.5186   -0.0484 C   0  0  0  0  0  0  0  0  0  0  0  0
    1.2969   -0.4684    1.2138 H   0  0  0  0  0  0  0  0  0  0  0  0
    1.8157    0.2043   -1.7351 H   0  0  0  0  0  0  0  0  0  0  0  0
    1.4989   -2.3741   -1.1502 H   0  0  0  0  0  0  0  0  0  0  0  0
    1.4787   -2.7574    0.5692 H   0  0  0  0  0  0  0  0  0  0  0  0
    5.8459    0.3726   -0.2810 H   0  0  0  0  0  0  0  0  0  0  0  0
    1.6983    1.7135    1.6707 H   0  0  0  0  0  0  0  0  0  0  0  0
    0.7783    2.1294   -2.4809 H   0  0  0  0  0  0  0  0  0  0  0  0
    6.0342   -3.9375    0.0117 H   0  0  0  0  0  0  0  0  0  0  0  0
   -2.5199   -0.8449   -0.8663 H   0  0  0  0  0  0  0  0  0  0  0  0
    2.7134   -5.8960   -1.0231 H   0  0  0  0  0  0  0  0  0  0  0  0
    4.1975   -5.2277   -1.7352 H   0  0  0  0  0  0  0  0  0  0  0  0
    2.6432   -4.3514   -1.8974 H   0  0  0  0  0  0  0  0  0  0  0  0
    9.2655   -2.6535   -0.0137 H   0  0  0  0  0  0  0  0  0  0  0  0
    8.0243   -3.5439   -0.8880 H   0  0  0  0  0  0  0  0  0  0  0  0
    7.9912   -3.4211    0.9269 H   0  0  0  0  0  0  0  0  0  0  0  0
   -1.8715    3.2510   -2.8610 H   0  0  0  0  0  0  0  0  0  0  0  0
   -2.3143    4.5774   -1.7368 H   0  0  0  0  0  0  0  0  0  0  0  0
   -1.9457    4.9302   -3.4394 H   0  0  0  0  0  0  0  0  0  0  0  0
    2.3167    3.0974    3.2565 H   0  0  0  0  0  0  0  0  0  0  0  0
    1.1385    3.8092    4.3509 H   0  0  0  0  0  0  0  0  0  0  0  0
    0.6920    2.3205    3.5280 H   0  0  0  0  0  0  0  0  0  0  0  0
   -3.2869   -1.8561    1.9558 H   0  0  0  0  0  0  0  0  0  0  0  0
   -0.0705    7.5654    0.4006 H   0  0  0  0  0  0  0  0  0  0  0  0
    0.9362    6.7410   -0.8096 H   0  0  0  0  0  0  0  0  0  0  0  0
    1.3092    6.5825    0.9379 H   0  0  0  0  0  0  0  0  0  0  0  0
   -4.5674   -0.1995   -1.1874 H   0  0  0  0  0  0  0  0  0  0  0  0
   -5.4911   -2.9458    2.0311 H   0  0  0  0  0  0  0  0  0  0  0  0
   -6.8835   -0.2951   -1.9280 H   0  0  0  0  0  0  0  0  0  0  0  0
   -7.7810   -3.0292    1.3126 H   0  0  0  0  0  0  0  0  0  0  0  0
  -10.6862   -2.4308   -0.5189 H   0  0  0  0  0  0  0  0  0  0  0  0
   -9.8071   -2.1643    0.9827 H   0  0  0  0  0  0  0  0  0  0  0  0
   -9.4168   -3.5751   -0.0973 H   0  0  0  0  0  0  0  0  0  0  0  0
  1 11  1  0  0  0  0
  1 15  1  0  0  0  0
  2 10  1  0  0  0  0
  2 25  1  0  0  0  0
  3 16  1  0  0  0  0
  3 27  1  0  0  0  0
  4 21  1  0  0  0  0
  4 28  1  0  0  0  0
  5 22  1  0  0  0  0
  5 29  1  0  0  0  0
  6 23  1  0  0  0  0
  6 30  1  0  0  0  0
  7 24  1  0  0  0  0
  7 32  1  0  0  0  0
  8 25  2  0  0  0  0
  9 38  1  0  0  0  0
  9 39  1  0  0  0  0
 10 11  1  0  0  0  0
 10 12  1  0  0  0  0
 10 40  1  0  0  0  0
 11 14  1  0  0  0  0
 11 41  1  0  0  0  0
 12 13  1  0  0  0  0
 12 42  1  0  0  0  0
 12 43  1  0  0  0  0
 13 15  2  0  0  0  0
 13 16  1  0  0  0  0
 14 18  2  0  0  0  0
 14 19  1  0  0  0  0
 15 17  1  0  0  0  0
 16 20  2  0  0  0  0
 17 21  2  0  0  0  0
 17 44  1  0  0  0  0
 18 23  1  0  0  0  0
 18 45  1  0  0  0  0
 19 22  2  0  0  0  0
 19 46  1  0  0  0  0
 20 21  1  0  0  0  0
 20 47  1  0  0  0  0
 22 24  1  0  0  0  0
 23 24  2  0  0  0  0
 25 26  1  0  0  0  0
 26 31  2  0  0  0  0
 26 48  1  0  0  0  0
 27 49  1  0  0  0  0
 27 50  1  0  0  0  0
 27 51  1  0  0  0  0
 28 52  1  0  0  0  0
 28 53  1  0  0  0  0
 28 54  1  0  0  0  0
 29 55  1  0  0  0  0
 29 56  1  0  0  0  0
 29 57  1  0  0  0  0
 30 58  1  0  0  0  0
 30 59  1  0  0  0  0
 30 60  1  0  0  0  0
 31 33  1  0  0  0  0
 31 61  1  0  0  0  0
 32 62  1  0  0  0  0
 32 63  1  0  0  0  0
 32 64  1  0  0  0  0
 33 34  2  0  0  0  0
 33 35  1  0  0  0  0
 34 36  1  0  0  0  0
 34 65  1  0  0  0  0
 35 37  2  0  0  0  0
 35 66  1  0  0  0  0
 36 38  2  0  0  0  0
 36 67  1  0  0  0  0
 37 38  1  0  0  0  0
 37 68  1  0  0  0  0
 39 69  1  0  0  0  0
 39 70  1  0  0  0  0
 39 71  1  0  0  0  0
M  END
> <PUBCHEM_COMPOUND_CID>
122179387

> <PUBCHEM_CONFORMER_RMSD>
1.2

> <PUBCHEM_CONFORMER_DIVERSEORDER>
1
15
17
6
4
3
12
13
11
9
7
8
5
16
10
14
18
2

> <PUBCHEM_MMFF94_PARTIAL_CHARGES>
49
1 -0.36
10 0.28
11 0.42
12 0.14
13 -0.14
14 -0.14
15 0.08
16 0.08
17 -0.15
18 -0.15
19 -0.15
2 -0.43
20 -0.15
21 0.08
22 0.08
23 0.08
24 0.08
25 0.71
26 -0.14
27 0.28
28 0.28
29 0.28
3 -0.36
30 0.28
31 -0.18
32 0.28
33 0.03
34 -0.15
35 -0.15
36 -0.15
37 -0.15
38 0.08
39 0.28
4 -0.36
44 0.15
45 0.15
46 0.15
47 0.15
48 0.15
5 -0.36
6 -0.36
61 0.15
65 0.15
66 0.15
67 0.15
68 0.15
7 -0.36
8 -0.57
9 -0.36

> <PUBCHEM_EFFECTIVE_ROTOR_COUNT>
11.8

> <PUBCHEM_PHARMACOPHORE_FEATURES>
12
1 1 acceptor
1 3 acceptor
1 4 acceptor
1 5 acceptor
1 6 acceptor
1 7 acceptor
1 8 acceptor
1 9 acceptor
6 1 10 11 12 13 15 rings
6 13 15 16 17 20 21 rings
6 14 18 19 22 23 24 rings
6 33 34 35 36 37 38 rings

> <PUBCHEM_HEAVY_ATOM_COUNT>
39

> <PUBCHEM_ATOM_DEF_STEREO_COUNT>
2

> <PUBCHEM_ATOM_UDEF_STEREO_COUNT>
0

> <PUBCHEM_BOND_DEF_STEREO_COUNT>
1

> <PUBCHEM_BOND_UDEF_STEREO_COUNT>
0

> <PUBCHEM_ISOTOPIC_ATOM_COUNT>
0

> <PUBCHEM_COMPONENT_COUNT>
1

> <PUBCHEM_CACTVS_TAUTO_COUNT>
1

> <PUBCHEM_CONFORMER_ID>
07484F3B00000001

> <PUBCHEM_MMFF94_ENERGY>
173.3287

> <PUBCHEM_FEATURE_SELFOVERLAP>
60.944

> <PUBCHEM_SHAPE_FINGERPRINT>
10050765 1 17977950078118678550
102385 1 17690848856609875742
10411042 1 18410857646519872484
10462674 125 18131078090985488994
10462674 369 18336270063209694823
10653451 467 18191298476347055776
11115154 58 18261396616183484017
11297750 10 18410000036183287728
11331351 85 17846223236800034071
11386260 185 18261663888099070647
117089 54 18335138679230774205
11720765 8 18339081604810881929
12166972 35 18343023324310820595
12539745 222 18265609885176497922
12741549 16 17894904148943649028
12788726 201 18188769436441756762
13835254 42 18339643317881585506
14068700 675 18131635586525291969
14400156 413 18261387909689404188
14681490 219 18261391092244163523
15351339 4 17604702266712934043
15419008 47 17894625959849138935
15439362 3 18050285066027721001
16988056 13 18263080071349027029
18365409 1 17901956235856802029
19301679 30 18267584611706649670
20238998 120 18410293605391407456
20642791 13 18117566128816333070
21049683 271 18410857681037697622
21133410 127 17608360574502512605
21133410 230 18339347657267083784
23559900 14 18263925613229041019
24771750 20 17755599469972776031
249057 3 18411138078179096911
283562 15 18189619337376095562
3383291 50 15960338341903560226
4066623 53 18260831496775985820
4408954 87 17195196720401661649
44317340 157 18194404623066576707
508180 173 18113899351963294505
5219985 9 18412267224811540354
59521099 67 18342173414866285145
6004065 56 18411701014862397250
9962374 69 18341044238094964047

> <PUBCHEM_SHAPE_MULTIPOLES>
749.78
19.69
8.7
1.76
34.54
14.68
-0.68
-35.53
2.05
-5.48
0.8
0.44
2.73
2.2

> <PUBCHEM_SHAPE_SELFOVERLAP>
1612.419

> <PUBCHEM_SHAPE_VOLUME>
415.7

> <PUBCHEM_COORDINATE_TYPE>
2
5
10

$$$$