32
 OpenBabel03292022263D

 92 96  0  0  1  0  0  0  0  0999 V2000
    1.1309    0.4668    0.3768 C   0  0  0  0  0  0  0  0  0  0  0  0
    2.4057    0.0934   -0.1358 O   0  0  0  0  0  0  0  0  0  0  0  0
    2.8936    0.8699   -1.1466 C   0  0  0  0  0  0  0  0  0  0  0  0
    2.5361    2.1859   -1.4096 C   0  0  0  0  0  0  0  0  0  0  0  0
    3.1116    2.9408   -2.4633 C   0  0  0  0  0  0  0  0  0  0  0  0
    2.5261    4.1728   -2.4452 O   0  0  0  0  0  0  0  0  0  0  0  0
    2.8633    5.2231   -3.3220 C   0  0  0  0  0  0  0  0  0  0  0  0
    4.1037    2.3443   -3.2666 C   0  0  0  0  0  0  0  0  0  0  0  0
    4.4781    1.0186   -2.9596 C   0  0  0  0  0  0  0  0  0  0  0  0
    3.8686    0.2880   -1.9328 C   0  0  0  0  0  0  0  0  0  0  0  0
    5.4994    0.3247   -3.5638 O   0  0  0  0  0  0  0  0  0  0  0  0
    6.5205    1.1471   -4.1543 C   0  0  2  0  0  0  0  0  0  0  0  0
    7.4637    1.8004   -3.1338 C   0  0  0  0  0  0  0  0  0  0  0  0
    7.3644    1.5301   -1.7633 C   0  0  0  0  0  0  0  0  0  0  0  0
    8.2152    2.1269   -0.8261 C   0  0  0  0  0  0  0  0  0  0  0  0
    8.1182    1.8864    0.5263 O   0  0  0  0  0  0  0  0  0  0  0  0
    7.4252    0.7020    0.9103 C   0  0  0  0  0  0  0  0  0  0  0  0
    9.2139    3.0212   -1.2543 C   0  0  0  0  0  0  0  0  0  0  0  0
    9.9294    3.6264   -0.2473 O   0  0  0  0  0  0  0  0  0  0  0  0
   11.3077    3.8762   -0.4865 C   0  0  0  0  0  0  0  0  0  0  0  0
    9.3546    3.2849   -2.6299 C   0  0  0  0  0  0  0  0  0  0  0  0
   10.3519    4.1311   -3.0373 O   0  0  0  0  0  0  0  0  0  0  0  0
   10.1121    4.8852   -4.2204 C   0  0  0  0  0  0  0  0  0  0  0  0
    8.4985    2.6514   -3.5542 C   0  0  0  0  0  0  0  0  0  0  0  0
    5.8602    2.1038   -5.1492 C   0  0  1  0  0  0  0  0  0  0  0  0
    5.1810    1.4383   -6.2406 O   0  0  0  0  0  0  0  0  0  0  0  0
    6.0283    0.9392   -7.1751 C   0  0  0  0  0  0  0  0  0  0  0  0
    7.2370    0.8935   -7.0570 O   0  0  0  0  0  0  0  0  0  0  0  0
    5.3187    0.4709   -8.4017 C   0  0  0  0  0  0  0  0  0  0  0  0
    3.9412    0.6191   -8.6058 C   0  0  0  0  0  0  0  0  0  0  0  0
    3.3606    0.1812   -9.8054 C   0  0  0  0  0  0  0  0  0  0  0  0
    4.1581   -0.3873  -10.7975 C   0  0  0  0  0  0  0  0  0  0  0  0
    3.5988   -0.7635  -11.9556 F   0  0  0  0  0  0  0  0  0  0  0  0
    5.5372   -0.4823  -10.6299 C   0  0  0  0  0  0  0  0  0  0  0  0
    6.3285   -0.9280  -11.7113 N   0  0  0  0  0  0  0  0  0  0  0  0
    7.5237   -0.3124  -12.0253 C   0  0  0  0  0  0  0  0  0  0  0  0
    8.0085    0.6464  -11.4378 O   0  0  0  0  0  0  0  0  0  0  0  0
    8.1657   -0.8759  -13.2397 C   0  0  0  0  0  0  0  0  0  0  0  0
    9.2274   -0.2332  -13.7518 C   0  0  0  0  0  0  0  0  0  0  0  0
   10.0036   -0.6776  -14.9145 C   0  0  0  0  0  0  0  0  0  0  0  0
   10.6644    0.2855  -15.6821 C   0  0  0  0  0  0  0  0  0  0  0  0
   11.4486   -0.0875  -16.7778 C   0  0  0  0  0  0  0  0  0  0  0  0
   12.1153    0.8218  -17.5664 O   0  0  0  0  0  0  0  0  0  0  0  0
   12.3826    2.0931  -16.9832 C   0  0  0  0  0  0  0  0  0  0  0  0
   11.5646   -1.4507  -17.1303 C   0  0  0  0  0  0  0  0  0  0  0  0
   12.2938   -1.6972  -18.2722 O   0  0  0  0  0  0  0  0  0  0  0  0
   13.0612   -2.8935  -18.3033 C   0  0  0  0  0  0  0  0  0  0  0  0
   10.9023   -2.4288  -16.3603 C   0  0  0  0  0  0  0  0  0  0  0  0
   10.9993   -3.7392  -16.7507 O   0  0  0  0  0  0  0  0  0  0  0  0
   10.2991   -4.7206  -15.9962 C   0  0  0  0  0  0  0  0  0  0  0  0
   10.1520   -2.0275  -15.2458 C   0  0  0  0  0  0  0  0  0  0  0  0
    6.1083   -0.0841   -9.4177 C   0  0  0  0  0  0  0  0  0  0  0  0
    4.8210    2.9452   -4.4362 C   0  0  0  0  0  0  0  0  0  0  0  0
    4.5753    4.0622   -4.8816 O   0  0  0  0  0  0  0  0  0  0  0  0
    0.8255   -0.2947    1.1006 H   0  0  0  0  0  0  0  0  0  0  0  0
    0.3829    0.4911   -0.4230 H   0  0  0  0  0  0  0  0  0  0  0  0
    1.1745    1.4238    0.9063 H   0  0  0  0  0  0  0  0  0  0  0  0
    1.8001    2.6865   -0.7840 H   0  0  0  0  0  0  0  0  0  0  0  0
    2.2633    6.0922   -3.0312 H   0  0  0  0  0  0  0  0  0  0  0  0
    2.5717    4.9816   -4.3466 H   0  0  0  0  0  0  0  0  0  0  0  0
    3.9097    5.5167   -3.2086 H   0  0  0  0  0  0  0  0  0  0  0  0
    4.1913   -0.7301   -1.7252 H   0  0  0  0  0  0  0  0  0  0  0  0
    7.1499    0.4296   -4.6919 H   0  0  0  0  0  0  0  0  0  0  0  0
    6.6040    0.8413   -1.4196 H   0  0  0  0  0  0  0  0  0  0  0  0
    7.5875    0.5431    1.9799 H   0  0  0  0  0  0  0  0  0  0  0  0
    7.8144   -0.1756    0.3812 H   0  0  0  0  0  0  0  0  0  0  0  0
    6.3463    0.8083    0.7531 H   0  0  0  0  0  0  0  0  0  0  0  0
   11.7753    4.0941    0.4795 H   0  0  0  0  0  0  0  0  0  0  0  0
   11.4523    4.7670   -1.1028 H   0  0  0  0  0  0  0  0  0  0  0  0
   11.8126    3.0021   -0.9112 H   0  0  0  0  0  0  0  0  0  0  0  0
   10.8853    5.6577   -4.2835 H   0  0  0  0  0  0  0  0  0  0  0  0
    9.1388    5.3854   -4.1856 H   0  0  0  0  0  0  0  0  0  0  0  0
   10.2045    4.2583   -5.1122 H   0  0  0  0  0  0  0  0  0  0  0  0
    8.6485    2.8048   -4.6170 H   0  0  0  0  0  0  0  0  0  0  0  0
    6.5927    2.8050   -5.5717 H   0  0  0  0  0  0  0  0  0  0  0  0
    3.3114    1.0886   -7.8541 H   0  0  0  0  0  0  0  0  0  0  0  0
    2.2978    0.3128   -9.9877 H   0  0  0  0  0  0  0  0  0  0  0  0
    5.8439   -1.4224  -12.4517 H   0  0  0  0  0  0  0  0  0  0  0  0
    7.7727   -1.7939  -13.6531 H   0  0  0  0  0  0  0  0  0  0  0  0
    9.5624    0.7001  -13.2976 H   0  0  0  0  0  0  0  0  0  0  0  0
   10.5380    1.3306  -15.4193 H   0  0  0  0  0  0  0  0  0  0  0  0
   13.0415    2.6452  -17.6599 H   0  0  0  0  0  0  0  0  0  0  0  0
   12.9007    1.9887  -16.0232 H   0  0  0  0  0  0  0  0  0  0  0  0
   11.4642    2.6789  -16.8724 H   0  0  0  0  0  0  0  0  0  0  0  0
   13.8194   -2.7800  -19.0848 H   0  0  0  0  0  0  0  0  0  0  0  0
   12.4443   -3.7492  -18.5920 H   0  0  0  0  0  0  0  0  0  0  0  0
   13.5838   -3.0729  -17.3576 H   0  0  0  0  0  0  0  0  0  0  0  0
   10.4622   -5.6913  -16.4730 H   0  0  0  0  0  0  0  0  0  0  0  0
    9.2207   -4.5285  -15.9979 H   0  0  0  0  0  0  0  0  0  0  0  0
   10.6900   -4.7819  -14.9750 H   0  0  0  0  0  0  0  0  0  0  0  0
    9.6679   -2.7645  -14.6166 H   0  0  0  0  0  0  0  0  0  0  0  0
    7.1820   -0.1919   -9.2639 H   0  0  0  0  0  0  0  0  0  0  0  0
  1  2  1  0  0  0  0
  1 55  1  0  0  0  0
  1 56  1  0  0  0  0
  1 57  1  0  0  0  0
  2  3  1  0  0  0  0
  3  4  1  0  0  0  0
  3 10  2  0  0  0  0
  4  5  2  0  0  0  0
  4 58  1  0  0  0  0
  5  6  1  0  0  0  0
  5  8  1  0  0  0  0
  6  7  1  0  0  0  0
  7 59  1  0  0  0  0
  7 60  1  0  0  0  0
  7 61  1  0  0  0  0
  8  9  2  0  0  0  0
  8 53  1  0  0  0  0
  9 10  1  0  0  0  0
  9 11  1  0  0  0  0
 10 62  1  0  0  0  0
 11 12  1  0  0  0  0
 12 13  1  0  0  0  0
 12 25  1  0  0  0  0
 12 63  1  6  0  0  0
 13 14  1  0  0  0  0
 13 24  2  0  0  0  0
 14 15  2  0  0  0  0
 14 64  1  0  0  0  0
 15 16  1  0  0  0  0
 15 18  1  0  0  0  0
 16 17  1  0  0  0  0
 17 65  1  0  0  0  0
 17 66  1  0  0  0  0
 17 67  1  0  0  0  0
 18 19  1  0  0  0  0
 18 21  2  0  0  0  0
 19 20  1  0  0  0  0
 20 68  1  0  0  0  0
 20 69  1  0  0  0  0
 20 70  1  0  0  0  0
 21 22  1  0  0  0  0
 21 24  1  0  0  0  0
 22 23  1  0  0  0  0
 23 71  1  0  0  0  0
 23 72  1  0  0  0  0
 23 73  1  0  0  0  0
 24 74  1  0  0  0  0
 25 53  1  0  0  0  0
 25 26  1  0  0  0  0
 25 75  1  6  0  0  0
 26 27  1  0  0  0  0
 27 28  2  0  0  0  0
 27 29  1  0  0  0  0
 29 30  1  0  0  0  0
 29 52  2  0  0  0  0
 30 31  2  0  0  0  0
 30 76  1  0  0  0  0
 31 32  1  0  0  0  0
 31 77  1  0  0  0  0
 32 33  1  0  0  0  0
 32 34  2  0  0  0  0
 34 35  1  0  0  0  0
 34 52  1  0  0  0  0
 35 36  1  0  0  0  0
 35 78  1  0  0  0  0
 36 37  2  0  0  0  0
 36 38  1  0  0  0  0
 38 39  2  0  0  0  0
 38 79  1  0  0  0  0
 39 40  1  0  0  0  0
 39 80  1  0  0  0  0
 40 41  1  0  0  0  0
 40 51  2  0  0  0  0
 41 42  2  0  0  0  0
 41 81  1  0  0  0  0
 42 43  1  0  0  0  0
 42 45  1  0  0  0  0
 43 44  1  0  0  0  0
 44 82  1  0  0  0  0
 44 83  1  0  0  0  0
 44 84  1  0  0  0  0
 45 46  1  0  0  0  0
 45 48  2  0  0  0  0
 46 47  1  0  0  0  0
 47 85  1  0  0  0  0
 47 86  1  0  0  0  0
 47 87  1  0  0  0  0
 48 49  1  0  0  0  0
 48 51  1  0  0  0  0
 49 50  1  0  0  0  0
 50 88  1  0  0  0  0
 50 89  1  0  0  0  0
 50 90  1  0  0  0  0
 51 91  1  0  0  0  0
 52 92  1  0  0  0  0
 53 54  2  0  0  0  0
M  END
>  <Energy>
219.367

$$$$