127045208
  -OEChem-03242010103D

 52 55  0     0  0  0  0  0  0999 V2000
   -3.4129    2.7517   -0.1940 O   0  0  0  0  0  0  0  0  0  0  0  0
   -6.1722    2.4194   -0.2126 O   0  0  0  0  0  0  0  0  0  0  0  0
   -1.2084   -4.2950    1.0228 O   0  0  0  0  0  0  0  0  0  0  0  0
    3.5119   -0.9397   -0.3415 N   0  0  0  0  0  0  0  0  0  0  0  0
    2.0859    0.6299   -1.3613 N   0  0  0  0  0  0  0  0  0  0  0  0
    2.3914    2.9912   -0.9903 N   0  0  0  0  0  0  0  0  0  0  0  0
    3.8665    1.4239    0.0675 C   0  0  0  0  0  0  0  0  0  0  0  0
    2.7736   -2.1337   -0.3264 C   0  0  0  0  0  0  0  0  0  0  0  0
    3.1408    0.4115   -0.5538 C   0  0  0  0  0  0  0  0  0  0  0  0
    0.7027   -3.3079    0.0857 C   0  0  0  0  0  0  0  0  0  0  0  0
    1.4366   -2.1218    0.0713 C   0  0  0  0  0  0  0  0  0  0  0  0
    3.4408    2.7375   -0.1890 C   0  0  0  0  0  0  0  0  0  0  0  0
    3.3765   -3.3317   -0.7099 C   0  0  0  0  0  0  0  0  0  0  0  0
    4.9651    1.1705    0.9069 C   0  0  0  0  0  0  0  0  0  0  0  0
    1.3056   -4.5060   -0.2978 C   0  0  0  0  0  0  0  0  0  0  0  0
   -3.6802   -0.8474    0.3858 C   0  0  0  0  0  0  0  0  0  0  0  0
    2.6425   -4.5177   -0.6958 C   0  0  0  0  0  0  0  0  0  0  0  0
   -0.6910   -3.2956    0.5014 C   0  0  0  0  0  0  0  0  0  0  0  0
    4.1426    3.7777    0.4152 C   0  0  0  0  0  0  0  0  0  0  0  0
    5.6481    2.2289    1.4977 C   0  0  0  0  0  0  0  0  0  0  0  0
   -3.1292    0.4195    0.1933 C   0  0  0  0  0  0  0  0  0  0  0  0
   -2.8002   -2.0100    0.5988 C   0  0  0  0  0  0  0  0  0  0  0  0
   -3.9631    1.5195   -0.0079 C   0  0  0  0  0  0  0  0  0  0  0  0
   -1.5040   -2.0553    0.2570 C   0  0  0  0  0  0  0  0  0  0  0  0
    5.2361    3.5339    1.2514 C   0  0  0  0  0  0  0  0  0  0  0  0
   -5.0651   -1.0144    0.3770 C   0  0  0  0  0  0  0  0  0  0  0  0
   -5.3479    1.3526   -0.0164 C   0  0  0  0  0  0  0  0  0  0  0  0
   -5.8989    0.0857    0.1762 C   0  0  0  0  0  0  0  0  0  0  0  0
    1.7710    1.9239   -1.5329 C   0  0  0  0  0  0  0  0  0  0  0  0
   -1.9892    2.8358   -0.1711 C   0  0  0  0  0  0  0  0  0  0  0  0
   -7.5754    2.1634   -0.2070 C   0  0  0  0  0  0  0  0  0  0  0  0
    4.5147   -1.0889   -0.4127 H   0  0  0  0  0  0  0  0  0  0  0  0
    0.9997   -1.1895    0.4177 H   0  0  0  0  0  0  0  0  0  0  0  0
    4.4172   -3.3552   -1.0232 H   0  0  0  0  0  0  0  0  0  0  0  0
    5.3073    0.1631    1.1264 H   0  0  0  0  0  0  0  0  0  0  0  0
    0.7493   -5.4398   -0.2974 H   0  0  0  0  0  0  0  0  0  0  0  0
    3.1118   -5.4502   -0.9956 H   0  0  0  0  0  0  0  0  0  0  0  0
    3.8403    4.8083    0.2388 H   0  0  0  0  0  0  0  0  0  0  0  0
   -2.0529    0.5266    0.2354 H   0  0  0  0  0  0  0  0  0  0  0  0
    6.4960    2.0375    2.1483 H   0  0  0  0  0  0  0  0  0  0  0  0
   -3.2717   -2.8658    1.0758 H   0  0  0  0  0  0  0  0  0  0  0  0
   -1.0279   -1.2392   -0.2705 H   0  0  0  0  0  0  0  0  0  0  0  0
    5.7634    4.3659    1.7089 H   0  0  0  0  0  0  0  0  0  0  0  0
   -5.5109   -1.9953    0.5242 H   0  0  0  0  0  0  0  0  0  0  0  0
   -6.9640   -0.1187    0.1816 H   0  0  0  0  0  0  0  0  0  0  0  0
    0.9265    2.1349   -2.1775 H   0  0  0  0  0  0  0  0  0  0  0  0
   -1.7265    3.8847   -0.3445 H   0  0  0  0  0  0  0  0  0  0  0  0
   -1.5370    2.2592   -0.9853 H   0  0  0  0  0  0  0  0  0  0  0  0
   -1.5832    2.5672    0.8102 H   0  0  0  0  0  0  0  0  0  0  0  0
   -8.0783    3.1212   -0.3766 H   0  0  0  0  0  0  0  0  0  0  0  0
   -7.9145    1.7946    0.7670 H   0  0  0  0  0  0  0  0  0  0  0  0
   -7.8681    1.5010   -1.0288 H   0  0  0  0  0  0  0  0  0  0  0  0
  1 23  1  0  0  0  0
  1 30  1  0  0  0  0
  2 27  1  0  0  0  0
  2 31  1  0  0  0  0
  3 18  2  0  0  0  0
  4  8  1  0  0  0  0
  4  9  1  0  0  0  0
  4 32  1  0  0  0  0
  5  9  2  0  0  0  0
  5 29  1  0  0  0  0
  6 12  1  0  0  0  0
  6 29  2  0  0  0  0
  7  9  1  0  0  0  0
  7 12  1  0  0  0  0
  7 14  2  0  0  0  0
  8 11  1  0  0  0  0
  8 13  2  0  0  0  0
 10 11  2  0  0  0  0
 10 15  1  0  0  0  0
 10 18  1  0  0  0  0
 11 33  1  0  0  0  0
 12 19  2  0  0  0  0
 13 17  1  0  0  0  0
 13 34  1  0  0  0  0
 14 20  1  0  0  0  0
 14 35  1  0  0  0  0
 15 17  2  0  0  0  0
 15 36  1  0  0  0  0
 16 21  2  0  0  0  0
 16 22  1  0  0  0  0
 16 26  1  0  0  0  0
 17 37  1  0  0  0  0
 18 24  1  0  0  0  0
 19 25  1  0  0  0  0
 19 38  1  0  0  0  0
 20 25  2  0  0  0  0
 20 40  1  0  0  0  0
 21 23  1  0  0  0  0
 21 39  1  0  0  0  0
 22 24  2  0  0  0  0
 22 41  1  0  0  0  0
 23 27  2  0  0  0  0
 24 42  1  0  0  0  0
 25 43  1  0  0  0  0
 26 28  2  0  0  0  0
 26 44  1  0  0  0  0
 27 28  1  0  0  0  0
 28 45  1  0  0  0  0
 29 46  1  0  0  0  0
 30 47  1  0  0  0  0
 30 48  1  0  0  0  0
 30 49  1  0  0  0  0
 31 50  1  0  0  0  0
 31 51  1  0  0  0  0
 31 52  1  0  0  0  0
M  END
> <PUBCHEM_COMPOUND_CID>
127045208

> <PUBCHEM_CONFORMER_RMSD>
1.2

> <PUBCHEM_CONFORMER_DIVERSEORDER>
1
83
52
10
82
58
73
78
71
95
42
54
28
44
77
76
74
8
35
61
53
46
84
94
14
80
85
90
66
45
91
70
18
89
79
92
75
41
39
27
51
21
12
23
62
4
63
86
96
29
33
65
24
40
13
93
60
59
72
30
47
57
49
67
88
81
55
48
9
64
6
17
15
2
26
25
43
19
31
69
34
5
22
56
32
3
38
11
7
68
87
36
16
20
50
37

> <PUBCHEM_MMFF94_PARTIAL_CHARGES>
45
1 -0.36
10 0.09
11 -0.15
12 0.31
13 -0.15
14 -0.15
15 -0.15
16 0.03
17 -0.15
18 0.47
19 -0.15
2 -0.36
20 -0.15
21 -0.15
22 -0.18
23 0.08
24 -0.14
25 -0.15
26 -0.15
27 0.08
28 -0.15
29 0.47
3 -0.57
30 0.28
31 0.28
32 0.4
33 0.15
34 0.15
35 0.15
36 0.15
37 0.15
38 0.15
39 0.15
4 -0.6
40 0.15
41 0.15
42 0.15
43 0.15
44 0.15
45 0.15
46 0.15
5 -0.62
6 -0.62
8 0.1
9 0.41

> <PUBCHEM_EFFECTIVE_ROTOR_COUNT>
7

> <PUBCHEM_PHARMACOPHORE_FEATURES>
10
1 1 acceptor
1 2 acceptor
1 3 acceptor
1 4 donor
3 4 5 9 cation
3 5 6 29 cation
6 16 21 23 26 27 28 rings
6 5 6 7 9 12 29 rings
6 7 12 14 19 20 25 rings
6 8 10 11 13 15 17 rings

> <PUBCHEM_HEAVY_ATOM_COUNT>
31

> <PUBCHEM_ATOM_DEF_STEREO_COUNT>
0

> <PUBCHEM_ATOM_UDEF_STEREO_COUNT>
0

> <PUBCHEM_BOND_DEF_STEREO_COUNT>
1

> <PUBCHEM_BOND_UDEF_STEREO_COUNT>
0

> <PUBCHEM_ISOTOPIC_ATOM_COUNT>
0

> <PUBCHEM_COMPONENT_COUNT>
1

> <PUBCHEM_CACTVS_TAUTO_COUNT>
9

> <PUBCHEM_CONFORMER_ID>
07928E5800000001

> <PUBCHEM_MMFF94_ENERGY>
131.8181

> <PUBCHEM_FEATURE_SELFOVERLAP>
50.923

> <PUBCHEM_SHAPE_FINGERPRINT>
10439779 11 18337946917458571312
10675989 125 18341052908799861785
11513181 2 18272090491549886743
12107183 9 18264474244114672354
12422481 6 18188200005350478346
12925494 130 18118971296155417441
12978246 48 18262524826139400329
13533116 47 18339083662379460453
13965767 371 18114170969689568350
14223995 32 18339361972123464136
14725015 67 17897159113757821291
15320295 44 18201708545439177551
15320467 1 18265899042847257325
15400415 2 18267304407644652145
15420108 30 18268414893551828582
16067689 134 16902158094055488537
16067689 302 18413107274298879311
16988056 13 18268435620763202110
17818456 19 17831858324332673044
18681886 176 18051688837481958947
19053607 189 18334298698954288797
19246450 95 18267568278509675354
20238998 120 18052822447477349422
20715895 44 18410572894361724650
21133410 127 18113058229172950260
21860390 5 18198071278441960718
229767 44 18262508333823705872
23559900 14 18265332807634166779
354706 109 17982142807032015929
376196 1 18411421738930209994
4403749 210 18121769793328770336
469060 322 17473569295556746666
5047190 48 18263646345549080812
508180 173 18122087333108552430
5776283 40 18337408062688418550
6036956 94 17686055407009043189
6176135 31 18408602591163844209
6371009 1 18049713319838690519
6371380 46 18412270558423567646
653340 110 17763740292988767816
99344 41 18410288104330098805
9961470 85 18409729552048187547
9981440 41 18264773331977219459

> <PUBCHEM_SHAPE_MULTIPOLES>
605.41
15.04
6.95
1.03
18.11
5.28
-0.02
-16.73
2.47
-5.96
0.09
-1.1
-0.32
2.55

> <PUBCHEM_SHAPE_SELFOVERLAP>
1330.03

> <PUBCHEM_SHAPE_VOLUME>
324.3

> <PUBCHEM_COORDINATE_TYPE>
2
5
10

$$$$