122185092
  -OEChem-03242010103D

 74 78  0     0  0  0  0  0  0999 V2000
    1.9861   -3.3384   -0.2397 O   0  0  0  0  0  0  0  0  0  0  0  0
   -0.2462    0.4053    1.2515 O   0  0  0  0  0  0  0  0  0  0  0  0
   -0.6000   -3.7319    0.8795 O   0  0  0  0  0  0  0  0  0  0  0  0
    1.7986    4.7454   -0.7741 O   0  0  0  0  0  0  0  0  0  0  0  0
    7.0679   -2.9471    0.5880 O   0  0  0  0  0  0  0  0  0  0  0  0
    3.9322    5.2848    0.9243 O   0  0  0  0  0  0  0  0  0  0  0  0
    7.9968   -1.4721   -1.5775 O   0  0  0  0  0  0  0  0  0  0  0  0
   -5.7014   -0.0263    0.7703 O   0  0  0  0  0  0  0  0  0  0  0  0
   -4.7297   -0.3480   -2.4427 O   0  5  0  0  0  0  0  0  0  0  0  0
   -3.8162    1.4597   -1.5959 O   0  0  0  0  0  0  0  0  0  0  0  0
    0.4713   -1.7011    0.4777 N   0  0  0  0  0  0  0  0  0  0  0  0
   -4.0908    0.2379   -1.5370 N   0  3  0  0  0  0  0  0  0  0  0  0
    1.9711    0.0448    0.4374 C   0  0  0  0  0  0  0  0  0  0  0  0
    2.6311   -1.0511    0.0271 C   0  0  0  0  0  0  0  0  0  0  0  0
    1.6862   -2.1926    0.0587 C   0  0  0  0  0  0  0  0  0  0  0  0
    0.5832   -0.3539    0.7756 C   0  0  0  0  0  0  0  0  0  0  0  0
    4.0305   -1.1631   -0.3892 C   0  0  0  0  0  0  0  0  0  0  0  0
    2.4801    1.4119    0.5626 C   0  0  0  0  0  0  0  0  0  0  0  0
   -0.6553   -2.5253    0.6470 C   0  0  0  0  0  0  0  0  0  0  0  0
    4.8975   -2.0097    0.3016 C   0  0  0  0  0  0  0  0  0  0  0  0
    1.8944    2.4435   -0.1712 C   0  0  0  0  0  0  0  0  0  0  0  0
    3.5506    1.6828    1.4148 C   0  0  0  0  0  0  0  0  0  0  0  0
    4.4967   -0.4232   -1.4759 C   0  0  0  0  0  0  0  0  0  0  0  0
   -1.9798   -1.8667    0.6720 C   0  0  0  0  0  0  0  0  0  0  0  0
    2.3790    3.7461   -0.0526 C   0  0  0  0  0  0  0  0  0  0  0  0
    6.2307   -2.1167   -0.0944 C   0  0  0  0  0  0  0  0  0  0  0  0
    4.0354    2.9853    1.5332 C   0  0  0  0  0  0  0  0  0  0  0  0
    5.8300   -0.5300   -1.8716 C   0  0  0  0  0  0  0  0  0  0  0  0
    3.4496    4.0170    0.7996 C   0  0  0  0  0  0  0  0  0  0  0  0
    6.6971   -1.3767   -1.1810 C   0  0  0  0  0  0  0  0  0  0  0  0
   -2.4142   -1.1294   -0.4294 C   0  0  0  0  0  0  0  0  0  0  0  0
   -2.7940   -1.9833    1.7985 C   0  0  0  0  0  0  0  0  0  0  0  0
   -3.6632   -0.5087   -0.4044 C   0  0  0  0  0  0  0  0  0  0  0  0
   -4.4774   -0.6250    0.7220 C   0  0  0  0  0  0  0  0  0  0  0  0
   -4.0428   -1.3622    1.8236 C   0  0  0  0  0  0  0  0  0  0  0  0
   -6.8307   -0.8771    0.9544 C   0  0  0  0  0  0  0  0  0  0  0  0
   -8.0153   -0.2771    0.2555 C   0  0  0  0  0  0  0  0  0  0  0  0
    6.5122   -3.6676    1.6863 C   0  0  0  0  0  0  0  0  0  0  0  0
    0.7097    4.3841   -1.6215 C   0  0  0  0  0  0  0  0  0  0  0  0
    8.3921   -0.6820   -2.6974 C   0  0  0  0  0  0  0  0  0  0  0  0
    5.0285    5.4758    1.8166 C   0  0  0  0  0  0  0  0  0  0  0  0
   -8.8551    0.6037    0.9372 C   0  0  0  0  0  0  0  0  0  0  0  0
   -8.2765   -0.6001   -1.0761 C   0  0  0  0  0  0  0  0  0  0  0  0
   -9.9559    1.1616    0.2872 C   0  0  0  0  0  0  0  0  0  0  0  0
   -9.3772   -0.0420   -1.7262 C   0  0  0  0  0  0  0  0  0  0  0  0
  -10.2170    0.8389   -1.0446 C   0  0  0  0  0  0  0  0  0  0  0  0
    4.4841   -2.5571    1.1427 H   0  0  0  0  0  0  0  0  0  0  0  0
    1.0682    2.1759   -0.8223 H   0  0  0  0  0  0  0  0  0  0  0  0
    4.0152    0.8935    2.0011 H   0  0  0  0  0  0  0  0  0  0  0  0
    3.8343    0.2360   -2.0319 H   0  0  0  0  0  0  0  0  0  0  0  0
    4.8679    3.1214    2.2148 H   0  0  0  0  0  0  0  0  0  0  0  0
    6.1212    0.0730   -2.7247 H   0  0  0  0  0  0  0  0  0  0  0  0
   -1.7807   -1.0431   -1.3100 H   0  0  0  0  0  0  0  0  0  0  0  0
   -2.4648   -2.5509    2.6650 H   0  0  0  0  0  0  0  0  0  0  0  0
   -4.6614   -1.4541    2.7122 H   0  0  0  0  0  0  0  0  0  0  0  0
   -7.0332   -0.9781    2.0276 H   0  0  0  0  0  0  0  0  0  0  0  0
   -6.6427   -1.8853    0.5602 H   0  0  0  0  0  0  0  0  0  0  0  0
    7.3163   -4.2780    2.1105 H   0  0  0  0  0  0  0  0  0  0  0  0
    0.3698    5.2998   -2.1167 H   0  0  0  0  0  0  0  0  0  0  0  0
   -0.1402    4.0008   -1.0464 H   0  0  0  0  0  0  0  0  0  0  0  0
    5.7276   -4.3592    1.3606 H   0  0  0  0  0  0  0  0  0  0  0  0
    6.1728   -2.9942    2.4809 H   0  0  0  0  0  0  0  0  0  0  0  0
    1.0247    3.6945   -2.4121 H   0  0  0  0  0  0  0  0  0  0  0  0
    5.9183    4.9292    1.4858 H   0  0  0  0  0  0  0  0  0  0  0  0
    7.8589   -0.9768   -3.6077 H   0  0  0  0  0  0  0  0  0  0  0  0
    4.7537    5.2391    2.8502 H   0  0  0  0  0  0  0  0  0  0  0  0
    9.4544   -0.8811   -2.8732 H   0  0  0  0  0  0  0  0  0  0  0  0
    5.2825    6.5407    1.7915 H   0  0  0  0  0  0  0  0  0  0  0  0
    8.3001    0.3892   -2.4883 H   0  0  0  0  0  0  0  0  0  0  0  0
   -8.6609    0.8646    1.9742 H   0  0  0  0  0  0  0  0  0  0  0  0
   -7.6287   -1.2838   -1.6182 H   0  0  0  0  0  0  0  0  0  0  0  0
  -10.6096    1.8479    0.8176 H   0  0  0  0  0  0  0  0  0  0  0  0
   -9.5802   -0.2928   -2.7632 H   0  0  0  0  0  0  0  0  0  0  0  0
  -11.0739    1.2736   -1.5508 H   0  0  0  0  0  0  0  0  0  0  0  0
  1 15  2  0  0  0  0
  2 16  2  0  0  0  0
  3 19  2  0  0  0  0
  4 25  1  0  0  0  0
  4 39  1  0  0  0  0
  5 26  1  0  0  0  0
  5 38  1  0  0  0  0
  6 29  1  0  0  0  0
  6 41  1  0  0  0  0
  7 30  1  0  0  0  0
  7 40  1  0  0  0  0
  8 34  1  0  0  0  0
  8 36  1  0  0  0  0
  9 12  1  0  0  0  0
 10 12  2  0  0  0  0
 11 15  1  0  0  0  0
 11 16  1  0  0  0  0
 11 19  1  0  0  0  0
 12 33  1  0  0  0  0
 13 14  2  0  0  0  0
 13 16  1  0  0  0  0
 13 18  1  0  0  0  0
 14 15  1  0  0  0  0
 14 17  1  0  0  0  0
 17 20  2  0  0  0  0
 17 23  1  0  0  0  0
 18 21  2  0  0  0  0
 18 22  1  0  0  0  0
 19 24  1  0  0  0  0
 20 26  1  0  0  0  0
 20 47  1  0  0  0  0
 21 25  1  0  0  0  0
 21 48  1  0  0  0  0
 22 27  2  0  0  0  0
 22 49  1  0  0  0  0
 23 28  2  0  0  0  0
 23 50  1  0  0  0  0
 24 31  2  0  0  0  0
 24 32  1  0  0  0  0
 25 29  2  0  0  0  0
 26 30  2  0  0  0  0
 27 29  1  0  0  0  0
 27 51  1  0  0  0  0
 28 30  1  0  0  0  0
 28 52  1  0  0  0  0
 31 33  1  0  0  0  0
 31 53  1  0  0  0  0
 32 35  2  0  0  0  0
 32 54  1  0  0  0  0
 33 34  2  0  0  0  0
 34 35  1  0  0  0  0
 35 55  1  0  0  0  0
 36 37  1  0  0  0  0
 36 56  1  0  0  0  0
 36 57  1  0  0  0  0
 37 42  2  0  0  0  0
 37 43  1  0  0  0  0
 38 58  1  0  0  0  0
 38 61  1  0  0  0  0
 38 62  1  0  0  0  0
 39 59  1  0  0  0  0
 39 60  1  0  0  0  0
 39 63  1  0  0  0  0
 40 65  1  0  0  0  0
 40 67  1  0  0  0  0
 40 69  1  0  0  0  0
 41 64  1  0  0  0  0
 41 66  1  0  0  0  0
 41 68  1  0  0  0  0
 42 44  1  0  0  0  0
 42 70  1  0  0  0  0
 43 45  2  0  0  0  0
 43 71  1  0  0  0  0
 44 46  2  0  0  0  0
 44 72  1  0  0  0  0
 45 46  1  0  0  0  0
 45 73  1  0  0  0  0
 46 74  1  0  0  0  0
M  CHG  2   9  -1  12   1
M  END
> <PUBCHEM_COMPOUND_CID>
122185092

> <PUBCHEM_CONFORMER_RMSD>
1.2

> <PUBCHEM_CONFORMER_DIVERSEORDER>
7
35
83
12
67
2
81
69
41
27
77
70
51
24
26
42
33
54
58
76
1
59
82
28
6
50
75
19
37
29
73
43
56
30
32
36
40
11
72
61
8
63
21
25
14
64
9
49
52
48
39
18
31
16
84
60
53
57
62
3
80
22
74
78
34
17
71
79
38
5
10
68
13
23
4
15
47
55
65
44
45
66
20
46

> <PUBCHEM_MMFF94_PARTIAL_CHARGES>
60
1 -0.57
10 -0.52
11 -0.18
12 0.91
13 -0.01
14 -0.01
15 0.62
16 0.62
17 0.03
18 0.03
19 0.54
2 -0.57
20 -0.15
21 -0.15
22 -0.15
23 -0.15
24 0.09
25 0.08
26 0.08
27 -0.15
28 -0.15
29 0.08
3 -0.57
30 0.08
31 -0.15
32 -0.15
33 0.13
34 0.08
35 -0.15
36 0.42
37 -0.14
38 0.28
39 0.28
4 -0.36
40 0.28
41 0.28
42 -0.15
43 -0.15
44 -0.15
45 -0.15
46 -0.15
47 0.15
48 0.15
49 0.15
5 -0.36
50 0.15
51 0.15
52 0.15
53 0.15
54 0.15
55 0.15
6 -0.36
7 -0.36
70 0.15
71 0.15
72 0.15
73 0.15
74 0.15
8 -0.36
9 -0.52

> <PUBCHEM_EFFECTIVE_ROTOR_COUNT>
12.2

> <PUBCHEM_PHARMACOPHORE_FEATURES>
16
1 1 acceptor
1 10 acceptor
1 2 acceptor
1 3 acceptor
1 4 acceptor
1 5 acceptor
1 6 acceptor
1 7 acceptor
1 8 acceptor
1 9 acceptor
1 9 anion
5 11 13 14 15 16 rings
6 17 20 23 26 28 30 rings
6 18 21 22 25 27 29 rings
6 24 31 32 33 34 35 rings
6 37 42 43 44 45 46 rings

> <PUBCHEM_HEAVY_ATOM_COUNT>
46

> <PUBCHEM_ATOM_DEF_STEREO_COUNT>
0

> <PUBCHEM_ATOM_UDEF_STEREO_COUNT>
0

> <PUBCHEM_BOND_DEF_STEREO_COUNT>
0

> <PUBCHEM_BOND_UDEF_STEREO_COUNT>
0

> <PUBCHEM_ISOTOPIC_ATOM_COUNT>
0

> <PUBCHEM_COMPONENT_COUNT>
1

> <PUBCHEM_CACTVS_TAUTO_COUNT>
1

> <PUBCHEM_CONFORMER_ID>
0748658400000007

> <PUBCHEM_MMFF94_ENERGY>
189.3428

> <PUBCHEM_FEATURE_SELFOVERLAP>
81.305

> <PUBCHEM_SHAPE_FINGERPRINT>
10050765 1 18197218267924931531
10165383 225 18041006120166512343
11017883 126 17704073967378732919
11386260 185 18343868839509017716
11456790 92 18187654548545906451
11621639 179 18333733537382353828
12107698 1 18272091574255430797
12664476 115 18113054930547199991
12788726 201 18263374599512182394
13008946 113 18043251448086909876
13540713 4 18122354737835634002
14068700 675 18131356267659379568
14937079 2 18412263956029919344
15131766 46 17842266258214963001
15198563 99 18126026896783361532
15320295 44 17843111769818982583
15347590 135 7997973444565268351
15439362 3 18196937888760532040
15840311 113 16917342641406923538
19309040 13 18056199322036162309
21033648 29 17968372463428511683
22311459 1 18341055133487841483
23559900 14 18270405009645115082
23576562 1 18266749149771430095
24204213 265 17632024065874897846
249057 25 17418105308436255467
249057 3 18131632288043824927
4066623 53 18334579023528617436
58902169 19 18130781283676917831
6086070 43 18340212976680204586

> <PUBCHEM_SHAPE_MULTIPOLES>
878
27.88
5.71
1.96
58.96
8.99
0.67
-4.27
9.7
-13.99
-2.26
-1.12
0.22
2.85

> <PUBCHEM_SHAPE_SELFOVERLAP>
1934.402

> <PUBCHEM_SHAPE_VOLUME>
474

> <PUBCHEM_COORDINATE_TYPE>
2
5
10

$$$$