57393400
  -OEChem-03242010103D

 40 41  0     0  0  0  0  0  0999 V2000
   -7.1892    1.0408   -0.0029 Br  0  0  0  0  0  0  0  0  0  0  0  0
    5.1378   -0.6495    0.0374 O   0  0  0  0  0  0  0  0  0  0  0  0
    4.5409    1.9756    0.6891 O   0  0  0  0  0  0  0  0  0  0  0  0
    3.1066   -2.3659   -0.7367 O   0  0  0  0  0  0  0  0  0  0  0  0
   -0.3651    2.3938   -0.4097 O   0  0  0  0  0  0  0  0  0  0  0  0
   -2.7207   -2.7621   -0.5419 O   0  5  0  0  0  0  0  0  0  0  0  0
   -2.6519   -2.3536    1.6139 O   0  0  0  0  0  0  0  0  0  0  0  0
   -1.1498    0.2140   -0.0367 N   0  0  0  0  0  0  0  0  0  0  0  0
   -2.9027   -2.0020    0.4376 N   0  3  0  0  0  0  0  0  0  0  0  0
    1.2173    0.7080   -0.1527 C   0  0  0  0  0  0  0  0  0  0  0  0
    3.8506   -0.2040   -0.0239 C   0  0  0  0  0  0  0  0  0  0  0  0
    3.5542    1.1191    0.3032 C   0  0  0  0  0  0  0  0  0  0  0  0
    2.8306   -1.0711   -0.4155 C   0  0  0  0  0  0  0  0  0  0  0  0
    2.2375    1.5751    0.2389 C   0  0  0  0  0  0  0  0  0  0  0  0
    1.5139   -0.6150   -0.4798 C   0  0  0  0  0  0  0  0  0  0  0  0
   -0.1550    1.1847   -0.2204 C   0  0  0  0  0  0  0  0  0  0  0  0
   -2.5561    0.3837   -0.0255 C   0  0  0  0  0  0  0  0  0  0  0  0
   -3.4120   -0.6932    0.2059 C   0  0  0  0  0  0  0  0  0  0  0  0
   -3.0813    1.6562   -0.2504 C   0  0  0  0  0  0  0  0  0  0  0  0
   -4.7930   -0.4974    0.2128 C   0  0  0  0  0  0  0  0  0  0  0  0
   -4.4623    1.8520   -0.2434 C   0  0  0  0  0  0  0  0  0  0  0  0
   -5.3181    0.7752   -0.0117 C   0  0  0  0  0  0  0  0  0  0  0  0
    5.5726   -1.2016    1.2780 C   0  0  0  0  0  0  0  0  0  0  0  0
    5.1889    2.7224   -0.3389 C   0  0  0  0  0  0  0  0  0  0  0  0
    2.0062   -3.1853   -1.1268 C   0  0  0  0  0  0  0  0  0  0  0  0
    2.0206    2.6076    0.5028 H   0  0  0  0  0  0  0  0  0  0  0  0
    0.7148   -1.2528   -0.8344 H   0  0  0  0  0  0  0  0  0  0  0  0
   -0.8520   -0.7318    0.1794 H   0  0  0  0  0  0  0  0  0  0  0  0
   -2.4941    2.5414   -0.4437 H   0  0  0  0  0  0  0  0  0  0  0  0
   -5.4598   -1.3383    0.3935 H   0  0  0  0  0  0  0  0  0  0  0  0
   -4.8569    2.8492   -0.4215 H   0  0  0  0  0  0  0  0  0  0  0  0
    6.6155   -1.5111    1.1682 H   0  0  0  0  0  0  0  0  0  0  0  0
    4.9733   -2.0790    1.5408 H   0  0  0  0  0  0  0  0  0  0  0  0
    5.5123   -0.4535    2.0748 H   0  0  0  0  0  0  0  0  0  0  0  0
    5.6750    2.0519   -1.0546 H   0  0  0  0  0  0  0  0  0  0  0  0
    4.4705    3.3668   -0.8554 H   0  0  0  0  0  0  0  0  0  0  0  0
    5.9531    3.3520    0.1250 H   0  0  0  0  0  0  0  0  0  0  0  0
    1.2765   -3.2981   -0.3175 H   0  0  0  0  0  0  0  0  0  0  0  0
    1.5500   -2.8327   -2.0582 H   0  0  0  0  0  0  0  0  0  0  0  0
    2.4068   -4.1839   -1.3309 H   0  0  0  0  0  0  0  0  0  0  0  0
  1 22  1  0  0  0  0
  2 11  1  0  0  0  0
  2 23  1  0  0  0  0
  3 12  1  0  0  0  0
  3 24  1  0  0  0  0
  4 13  1  0  0  0  0
  4 25  1  0  0  0  0
  5 16  2  0  0  0  0
  6  9  1  0  0  0  0
  7  9  2  0  0  0  0
  8 16  1  0  0  0  0
  8 17  1  0  0  0  0
  8 28  1  0  0  0  0
  9 18  1  0  0  0  0
 10 14  2  0  0  0  0
 10 15  1  0  0  0  0
 10 16  1  0  0  0  0
 11 12  2  0  0  0  0
 11 13  1  0  0  0  0
 12 14  1  0  0  0  0
 13 15  2  0  0  0  0
 14 26  1  0  0  0  0
 15 27  1  0  0  0  0
 17 18  2  0  0  0  0
 17 19  1  0  0  0  0
 18 20  1  0  0  0  0
 19 21  2  0  0  0  0
 19 29  1  0  0  0  0
 20 22  2  0  0  0  0
 20 30  1  0  0  0  0
 21 22  1  0  0  0  0
 21 31  1  0  0  0  0
 23 32  1  0  0  0  0
 23 33  1  0  0  0  0
 23 34  1  0  0  0  0
 24 35  1  0  0  0  0
 24 36  1  0  0  0  0
 24 37  1  0  0  0  0
 25 38  1  0  0  0  0
 25 39  1  0  0  0  0
 25 40  1  0  0  0  0
M  CHG  2   6  -1   9   1
M  END
> <PUBCHEM_COMPOUND_CID>
57393400

> <PUBCHEM_CONFORMER_RMSD>
0.8

> <PUBCHEM_CONFORMER_DIVERSEORDER>
1
7
18
11
16
14
9
3
15
12
4
2
6
10
8
13
19
17
5

> <PUBCHEM_MMFF94_PARTIAL_CHARGES>
31
1 -0.11
10 0.09
11 0.08
12 0.08
13 0.08
14 -0.15
15 -0.15
16 0.54
17 0.12
18 0.13
19 -0.15
2 -0.36
20 -0.15
21 -0.15
22 0.11
23 0.28
24 0.28
25 0.28
26 0.15
27 0.15
28 0.37
29 0.15
3 -0.36
30 0.15
31 0.15
4 -0.36
5 -0.57
6 -0.52
7 -0.52
8 -0.55
9 0.91

> <PUBCHEM_EFFECTIVE_ROTOR_COUNT>
7

> <PUBCHEM_PHARMACOPHORE_FEATURES>
11
1 1 hydrophobe
1 2 acceptor
1 3 acceptor
1 4 acceptor
1 5 acceptor
1 6 acceptor
1 6 anion
1 7 acceptor
1 8 donor
6 10 11 12 13 14 15 rings
6 17 18 19 20 21 22 rings

> <PUBCHEM_HEAVY_ATOM_COUNT>
25

> <PUBCHEM_ATOM_DEF_STEREO_COUNT>
0

> <PUBCHEM_ATOM_UDEF_STEREO_COUNT>
0

> <PUBCHEM_BOND_DEF_STEREO_COUNT>
0

> <PUBCHEM_BOND_UDEF_STEREO_COUNT>
0

> <PUBCHEM_ISOTOPIC_ATOM_COUNT>
0

> <PUBCHEM_COMPONENT_COUNT>
1

> <PUBCHEM_CACTVS_TAUTO_COUNT>
2

> <PUBCHEM_CONFORMER_ID>
036BC0F800000001

> <PUBCHEM_MMFF94_ENERGY>
112.8394

> <PUBCHEM_FEATURE_SELFOVERLAP>
55.914

> <PUBCHEM_SHAPE_FINGERPRINT>
10366900 7 17632296800181717569
10616163 171 18339082725675520087
10835480 77 18410288146873830149
11405975 8 18408039611176657360
11719270 70 18271802402840042774
12107183 9 17409663051567348137
13402501 40 18410857612170898159
13533116 47 18060138696241590697
13583140 156 17916583279680041113
14341114 176 18409171029858401936
14617045 38 18338807731762274223
14790565 3 17761497293811485740
15196674 1 18410292553124413446
15375358 24 18412827975641336423
17980427 23 17604993813324357860
1813 80 17022623078462852573
19141452 34 18410292532319477149
20645477 70 17917715656165107292
21033648 29 17914604193210471456
21133410 32 16814959361467023974
21267235 1 18341055112328866332
21279426 13 18050286973436078573
21859007 373 17604978231578958837
22224240 67 17988347222899215066
23559900 14 18412261748596453648
239999 70 18131075888083906694
3004659 81 18261395516397601364
335352 9 18410011013791798030
34934 24 18410290341590769919
350125 39 18411698799471090412
3545911 37 18411702080024374693
3633792 109 18269832026732700273
3680242 22 18190178988430611002
4015057 19 18270666654378303869
4073 2 17968943114521980880
4214541 1 18409729556375063089
5104073 3 18410292536287735312
59755656 215 18339083679495909086
9709674 26 18411705356999986623

> <PUBCHEM_SHAPE_MULTIPOLES>
475.25
14.87
3.13
0.89
8.3
1.27
0.15
-3.85
1.84
-1.94
-0.44
-0.39
0.45
0.75

> <PUBCHEM_SHAPE_SELFOVERLAP>
998.645

> <PUBCHEM_SHAPE_VOLUME>
276.3

> <PUBCHEM_COORDINATE_TYPE>
2
5
10

$$$$