122182828
  -OEChem-03242010103D

 55 58  0     1  0  0  0  0  0999 V2000
    3.2173    1.8748    1.0111 O   0  0  0  0  0  0  0  0  0  0  0  0
    1.8939    1.5100    2.8753 O   0  0  0  0  0  0  0  0  0  0  0  0
    0.6930   -3.8381    0.4753 O   0  0  0  0  0  0  0  0  0  0  0  0
   -1.3532    1.6210    0.2004 N   0  0  0  0  0  0  0  0  0  0  0  0
    1.3217    0.8726   -0.6957 C   0  0  1  0  0  0  0  0  0  0  0  0
    0.1208    0.9514   -1.6486 C   0  0  0  0  0  0  0  0  0  0  0  0
   -1.1745    1.2929   -1.1701 C   0  0  0  0  0  0  0  0  0  0  0  0
    0.9988    1.3929    0.6838 C   0  0  0  0  0  0  0  0  0  0  0  0
    1.8337   -0.5355   -0.6089 C   0  0  0  0  0  0  0  0  0  0  0  0
   -0.2536    1.7061    1.0371 C   0  0  0  0  0  0  0  0  0  0  0  0
   -2.6981    1.9417    0.6739 C   0  0  0  0  0  0  0  0  0  0  0  0
    0.3208    0.6735   -3.0143 C   0  0  0  0  0  0  0  0  0  0  0  0
   -2.2304    1.3098   -2.1017 C   0  0  0  0  0  0  0  0  0  0  0  0
    1.0156   -1.5450   -0.1019 C   0  0  0  0  0  0  0  0  0  0  0  0
    2.0641    1.5931    1.6689 C   0  0  0  0  0  0  0  0  0  0  0  0
    3.1281   -0.8346   -1.0348 C   0  0  0  0  0  0  0  0  0  0  0  0
   -3.4753    0.6837    0.9458 C   0  0  0  0  0  0  0  0  0  0  0  0
   -0.7441    0.7045   -3.9086 C   0  0  0  0  0  0  0  0  0  0  0  0
   -2.0179    1.0174   -3.4519 C   0  0  0  0  0  0  0  0  0  0  0  0
    1.4915   -2.8538   -0.0206 C   0  0  0  0  0  0  0  0  0  0  0  0
    3.6041   -2.1433   -0.9533 C   0  0  0  0  0  0  0  0  0  0  0  0
    2.7857   -3.1529   -0.4464 C   0  0  0  0  0  0  0  0  0  0  0  0
   -4.8618    0.6737    0.7933 C   0  0  0  0  0  0  0  0  0  0  0  0
   -2.8098   -0.4736    1.3506 C   0  0  0  0  0  0  0  0  0  0  0  0
   -5.5829   -0.4935    1.0455 C   0  0  0  0  0  0  0  0  0  0  0  0
   -3.5309   -1.6407    1.6028 C   0  0  0  0  0  0  0  0  0  0  0  0
    4.3600    2.0982    1.8439 C   0  0  0  0  0  0  0  0  0  0  0  0
   -4.9174   -1.6507    1.4500 C   0  0  0  0  0  0  0  0  0  0  0  0
    5.5575    2.3980    0.9678 C   0  0  0  0  0  0  0  0  0  0  0  0
    1.2432   -5.1536    0.5313 C   0  0  0  0  0  0  0  0  0  0  0  0
    2.0812    1.5339   -1.1366 H   0  0  0  0  0  0  0  0  0  0  0  0
   -0.4954    2.0716    2.0297 H   0  0  0  0  0  0  0  0  0  0  0  0
   -3.2225    2.6196   -0.0099 H   0  0  0  0  0  0  0  0  0  0  0  0
   -2.6451    2.4954    1.6219 H   0  0  0  0  0  0  0  0  0  0  0  0
    1.3122    0.4264   -3.3861 H   0  0  0  0  0  0  0  0  0  0  0  0
   -3.2500    1.5515   -1.8185 H   0  0  0  0  0  0  0  0  0  0  0  0
    0.0035   -1.3358    0.2282 H   0  0  0  0  0  0  0  0  0  0  0  0
    3.7777   -0.0591   -1.4317 H   0  0  0  0  0  0  0  0  0  0  0  0
   -0.5802    0.4832   -4.9589 H   0  0  0  0  0  0  0  0  0  0  0  0
   -2.8524    1.0402   -4.1472 H   0  0  0  0  0  0  0  0  0  0  0  0
    4.6122   -2.3750   -1.2848 H   0  0  0  0  0  0  0  0  0  0  0  0
    3.2186   -4.1467   -0.4113 H   0  0  0  0  0  0  0  0  0  0  0  0
   -5.3914    1.5692    0.4794 H   0  0  0  0  0  0  0  0  0  0  0  0
   -1.7398   -0.5061    1.5168 H   0  0  0  0  0  0  0  0  0  0  0  0
   -6.6625   -0.5012    0.9272 H   0  0  0  0  0  0  0  0  0  0  0  0
   -3.0139   -2.5399    1.9252 H   0  0  0  0  0  0  0  0  0  0  0  0
    4.1661    2.9464    2.5099 H   0  0  0  0  0  0  0  0  0  0  0  0
    4.5547    1.2020    2.4434 H   0  0  0  0  0  0  0  0  0  0  0  0
   -5.4789   -2.5590    1.6480 H   0  0  0  0  0  0  0  0  0  0  0  0
    5.7516    1.5654    0.2834 H   0  0  0  0  0  0  0  0  0  0  0  0
    5.3702    3.2812    0.3482 H   0  0  0  0  0  0  0  0  0  0  0  0
    6.4511    2.5737    1.5731 H   0  0  0  0  0  0  0  0  0  0  0  0
    0.4727   -5.8084    0.9511 H   0  0  0  0  0  0  0  0  0  0  0  0
    2.1051   -5.2008    1.2055 H   0  0  0  0  0  0  0  0  0  0  0  0
    1.4768   -5.5348   -0.4686 H   0  0  0  0  0  0  0  0  0  0  0  0
  1 15  1  0  0  0  0
  1 27  1  0  0  0  0
  2 15  2  0  0  0  0
  3 20  1  0  0  0  0
  3 30  1  0  0  0  0
  4  7  1  0  0  0  0
  4 10  1  0  0  0  0
  4 11  1  0  0  0  0
  5  6  1  0  0  0  0
  5  8  1  0  0  0  0
  5  9  1  0  0  0  0
  5 31  1  0  0  0  0
  6  7  1  0  0  0  0
  6 12  2  0  0  0  0
  7 13  2  0  0  0  0
  8 10  2  0  0  0  0
  8 15  1  0  0  0  0
  9 14  2  0  0  0  0
  9 16  1  0  0  0  0
 10 32  1  0  0  0  0
 11 17  1  0  0  0  0
 11 33  1  0  0  0  0
 11 34  1  0  0  0  0
 12 18  1  0  0  0  0
 12 35  1  0  0  0  0
 13 19  1  0  0  0  0
 13 36  1  0  0  0  0
 14 20  1  0  0  0  0
 14 37  1  0  0  0  0
 16 21  2  0  0  0  0
 16 38  1  0  0  0  0
 17 23  2  0  0  0  0
 17 24  1  0  0  0  0
 18 19  2  0  0  0  0
 18 39  1  0  0  0  0
 19 40  1  0  0  0  0
 20 22  2  0  0  0  0
 21 22  1  0  0  0  0
 21 41  1  0  0  0  0
 22 42  1  0  0  0  0
 23 25  1  0  0  0  0
 23 43  1  0  0  0  0
 24 26  2  0  0  0  0
 24 44  1  0  0  0  0
 25 28  2  0  0  0  0
 25 45  1  0  0  0  0
 26 28  1  0  0  0  0
 26 46  1  0  0  0  0
 27 29  1  0  0  0  0
 27 47  1  0  0  0  0
 27 48  1  0  0  0  0
 28 49  1  0  0  0  0
 29 50  1  0  0  0  0
 29 51  1  0  0  0  0
 29 52  1  0  0  0  0
 30 53  1  0  0  0  0
 30 54  1  0  0  0  0
 30 55  1  0  0  0  0
M  END
> <PUBCHEM_COMPOUND_CID>
122182828

> <PUBCHEM_CONFORMER_RMSD>
1

> <PUBCHEM_CONFORMER_DIVERSEORDER>
2
46
48
43
51
27
54
39
53
16
57
15
41
44
56
49
58
19
3
38
34
52
12
50
31
21
22
4
40
33
45
28
35
42
47
24
23
55
13
59
32
6
18
36
37
9
1
20
30
14
11
25
26
8
5
10
17
29
7

> <PUBCHEM_MMFF94_PARTIAL_CHARGES>
43
1 -0.43
10 -0.05
11 0.51
12 -0.15
13 -0.15
14 -0.15
15 0.71
16 -0.15
17 -0.14
18 -0.15
19 -0.15
2 -0.57
20 0.08
21 -0.15
22 -0.15
23 -0.15
24 -0.15
25 -0.15
26 -0.15
27 0.28
28 -0.15
3 -0.36
30 0.28
32 0.15
35 0.15
36 0.15
37 0.15
38 0.15
39 0.15
4 -0.57
40 0.15
41 0.15
42 0.15
43 0.15
44 0.15
45 0.15
46 0.15
49 0.15
5 0.43
6 -0.14
7 0.1
8 -0.12
9 -0.14

> <PUBCHEM_EFFECTIVE_ROTOR_COUNT>
7.4

> <PUBCHEM_PHARMACOPHORE_FEATURES>
7
1 2 acceptor
1 3 acceptor
1 4 cation
6 17 23 24 25 26 28 rings
6 4 5 6 7 8 10 rings
6 6 7 12 13 18 19 rings
6 9 14 16 20 21 22 rings

> <PUBCHEM_HEAVY_ATOM_COUNT>
30

> <PUBCHEM_ATOM_DEF_STEREO_COUNT>
0

> <PUBCHEM_ATOM_UDEF_STEREO_COUNT>
1

> <PUBCHEM_BOND_DEF_STEREO_COUNT>
0

> <PUBCHEM_BOND_UDEF_STEREO_COUNT>
0

> <PUBCHEM_ISOTOPIC_ATOM_COUNT>
0

> <PUBCHEM_COMPONENT_COUNT>
1

> <PUBCHEM_CACTVS_TAUTO_COUNT>
6

> <PUBCHEM_CONFORMER_ID>
07485CAC00000002

> <PUBCHEM_MMFF94_ENERGY>
97.6858

> <PUBCHEM_FEATURE_SELFOVERLAP>
35.545

> <PUBCHEM_SHAPE_FINGERPRINT>
10369192 42 18264770038180752388
11445158 3 18045491169767153132
11477941 20 15653298830767667318
11578080 2 18189613852138583573
12128747 34 18196374715395088169
12156800 1 17546190930827529854
12160290 23 16155111565650051165
12403259 327 17984159067002584897
12422481 6 18041276681440770256
12633257 1 17346333565857080083
12969540 37 18264496091537543019
133893 2 17768770288155416932
13583140 156 18200028417850401869
14863182 85 18191045566997000267
15219462 58 18267305326809325765
15664445 248 16950579782645002021
16114785 44 16265160967119114808
17492 54 16736121173192086398
17974551 9 18052547573527113329
1813 80 17168152260494170433
19319366 153 17917992823696262776
20600515 1 17168710863603033065
20775530 9 17899432891310290867
21033648 29 18114467756699625041
21304303 282 14723836026823825557
21756936 100 17556010630716632032
23419403 2 18263634078758135526
23558518 356 16339176730968076768
23559900 14 18335992973674407585
244849 19 18192130617449090517
25222932 49 17772759505768423183
26353 1 16371878187205932143
3380486 77 16827308848140960128
392239 28 18271815600910501674
4340502 62 18271815665393136912
437795 51 18131084748838652548
46194498 28 16806752740189535607
463206 1 18194140705647458843
469060 322 18120069922338741053
563151 248 17131555063150303364
59444896 2 16597323447002933228
6691757 9 17839986911071242736
9896288 288 16838267732665064898

> <PUBCHEM_SHAPE_MULTIPOLES>
594.8
8.81
4.22
3.13
4.48
6.69
-3.03
-0.83
5.97
-4.15
1.07
0.56
-2.2
3.32

> <PUBCHEM_SHAPE_SELFOVERLAP>
1296.865

> <PUBCHEM_SHAPE_VOLUME>
321.8

> <PUBCHEM_COORDINATE_TYPE>
2
5
10

$$$$