122179398
  -OEChem-03242010103D

 70 73  0     1  0  0  0  0  0999 V2000
    3.2631    0.5653   -0.1985 O   0  0  0  0  0  0  0  0  0  0  0  0
   -0.2283   -0.6068   -0.1575 O   0  0  0  0  0  0  0  0  0  0  0  0
    1.1325   -2.9384   -0.0356 O   0  0  0  0  0  0  0  0  0  0  0  0
    3.3402   -4.2934   -0.2385 O   0  0  0  0  0  0  0  0  0  0  0  0
    0.7207    4.2207    2.4500 O   0  0  0  0  0  0  0  0  0  0  0  0
   -0.1814    4.6443   -2.2346 O   0  0  0  0  0  0  0  0  0  0  0  0
    7.3547   -1.7888   -0.6061 O   0  0  0  0  0  0  0  0  0  0  0  0
   -0.2521    5.7047    0.3229 O   0  0  0  0  0  0  0  0  0  0  0  0
   -0.8548   -1.3958    1.9217 O   0  0  0  0  0  0  0  0  0  0  0  0
   -8.8173   -1.6437   -0.9798 O   0  0  0  0  0  0  0  0  0  0  0  0
    1.8724    0.5213   -0.5551 C   0  0  1  0  0  0  0  0  0  0  0  0
    1.1265   -0.5421    0.2529 C   0  0  2  0  0  0  0  0  0  0  0  0
    1.3042    1.9082   -0.3200 C   0  0  0  0  0  0  0  0  0  0  0  0
    1.7640   -1.8886   -0.0112 C   0  0  0  0  0  0  0  0  0  0  0  0
    3.2272   -1.8741   -0.2061 C   0  0  0  0  0  0  0  0  0  0  0  0
    3.8933   -0.6482   -0.2724 C   0  0  0  0  0  0  0  0  0  0  0  0
    3.9413   -3.0721   -0.2949 C   0  0  0  0  0  0  0  0  0  0  0  0
    0.8150    2.6526   -1.3934 C   0  0  0  0  0  0  0  0  0  0  0  0
    1.2710    2.4391    0.9694 C   0  0  0  0  0  0  0  0  0  0  0  0
    5.2838   -0.6220   -0.3931 C   0  0  0  0  0  0  0  0  0  0  0  0
    0.7489    3.7143    1.1854 C   0  0  0  0  0  0  0  0  0  0  0  0
    0.2927    3.9278   -1.1775 C   0  0  0  0  0  0  0  0  0  0  0  0
    5.9997   -1.8164   -0.4781 C   0  0  0  0  0  0  0  0  0  0  0  0
    5.3292   -3.0387   -0.4338 C   0  0  0  0  0  0  0  0  0  0  0  0
    0.2595    4.4587    0.1120 C   0  0  0  0  0  0  0  0  0  0  0  0
   -1.1174   -1.0529    0.7799 C   0  0  0  0  0  0  0  0  0  0  0  0
   -2.4676   -1.0507    0.1727 C   0  0  0  0  0  0  0  0  0  0  0  0
    3.1938   -4.8845    1.0513 C   0  0  0  0  0  0  0  0  0  0  0  0
    1.2405    3.3947    3.4901 C   0  0  0  0  0  0  0  0  0  0  0  0
   -1.5606    4.4829   -2.5603 C   0  0  0  0  0  0  0  0  0  0  0  0
    8.0244   -3.0460   -0.6876 C   0  0  0  0  0  0  0  0  0  0  0  0
    0.6585    6.7992    0.2464 C   0  0  0  0  0  0  0  0  0  0  0  0
   -3.5200   -1.4508    0.9005 C   0  0  0  0  0  0  0  0  0  0  0  0
   -4.9076   -1.5026    0.4071 C   0  0  0  0  0  0  0  0  0  0  0  0
   -5.2788   -0.7546   -0.7102 C   0  0  0  0  0  0  0  0  0  0  0  0
   -5.8502   -2.2986    1.0581 C   0  0  0  0  0  0  0  0  0  0  0  0
   -6.5926   -0.8022   -1.1764 C   0  0  0  0  0  0  0  0  0  0  0  0
   -7.1639   -2.3462    0.5920 C   0  0  0  0  0  0  0  0  0  0  0  0
   -7.5351   -1.5980   -0.5252 C   0  0  0  0  0  0  0  0  0  0  0  0
   -9.7293   -2.4779   -0.2667 C   0  0  0  0  0  0  0  0  0  0  0  0
    1.8027    0.2930   -1.6290 H   0  0  0  0  0  0  0  0  0  0  0  0
    1.2206   -0.3551    1.3306 H   0  0  0  0  0  0  0  0  0  0  0  0
    0.8376    2.2465   -2.4017 H   0  0  0  0  0  0  0  0  0  0  0  0
    1.6771    1.8270    1.7666 H   0  0  0  0  0  0  0  0  0  0  0  0
    5.8106    0.3285   -0.4308 H   0  0  0  0  0  0  0  0  0  0  0  0
    5.8341   -3.9973   -0.4978 H   0  0  0  0  0  0  0  0  0  0  0  0
   -2.5412   -0.7368   -0.8619 H   0  0  0  0  0  0  0  0  0  0  0  0
    2.5236   -5.7436    0.9605 H   0  0  0  0  0  0  0  0  0  0  0  0
    4.1654   -5.2356    1.4127 H   0  0  0  0  0  0  0  0  0  0  0  0
    2.7646   -4.1791    1.7702 H   0  0  0  0  0  0  0  0  0  0  0  0
    0.6589    2.4734    3.6039 H   0  0  0  0  0  0  0  0  0  0  0  0
    2.3101    3.2007    3.3553 H   0  0  0  0  0  0  0  0  0  0  0  0
    1.1357    3.9529    4.4264 H   0  0  0  0  0  0  0  0  0  0  0  0
   -2.1932    4.7883   -1.7209 H   0  0  0  0  0  0  0  0  0  0  0  0
   -1.7868    5.1210   -3.4189 H   0  0  0  0  0  0  0  0  0  0  0  0
   -1.7715    3.4435   -2.8312 H   0  0  0  0  0  0  0  0  0  0  0  0
    9.0947   -2.8358   -0.7845 H   0  0  0  0  0  0  0  0  0  0  0  0
    7.7267   -3.6037   -1.5820 H   0  0  0  0  0  0  0  0  0  0  0  0
    7.8962   -3.6310    0.2295 H   0  0  0  0  0  0  0  0  0  0  0  0
    0.1026    7.7211    0.4378 H   0  0  0  0  0  0  0  0  0  0  0  0
    1.1041    6.8607   -0.7515 H   0  0  0  0  0  0  0  0  0  0  0  0
    1.4438    6.7011    1.0026 H   0  0  0  0  0  0  0  0  0  0  0  0
   -3.3812   -1.7799    1.9278 H   0  0  0  0  0  0  0  0  0  0  0  0
   -4.5848   -0.1057   -1.2362 H   0  0  0  0  0  0  0  0  0  0  0  0
   -5.5773   -2.8887    1.9297 H   0  0  0  0  0  0  0  0  0  0  0  0
   -6.8777   -0.2138   -2.0443 H   0  0  0  0  0  0  0  0  0  0  0  0
   -7.8446   -2.9848    1.1446 H   0  0  0  0  0  0  0  0  0  0  0  0
  -10.7009   -2.3941   -0.7647 H   0  0  0  0  0  0  0  0  0  0  0  0
   -9.8677   -2.1340    0.7639 H   0  0  0  0  0  0  0  0  0  0  0  0
   -9.4343   -3.5315   -0.3168 H   0  0  0  0  0  0  0  0  0  0  0  0
  1 11  1  0  0  0  0
  1 16  1  0  0  0  0
  2 12  1  0  0  0  0
  2 26  1  0  0  0  0
  3 14  2  0  0  0  0
  4 17  1  0  0  0  0
  4 28  1  0  0  0  0
  5 21  1  0  0  0  0
  5 29  1  0  0  0  0
  6 22  1  0  0  0  0
  6 30  1  0  0  0  0
  7 23  1  0  0  0  0
  7 31  1  0  0  0  0
  8 25  1  0  0  0  0
  8 32  1  0  0  0  0
  9 26  2  0  0  0  0
 10 39  1  0  0  0  0
 10 40  1  0  0  0  0
 11 12  1  0  0  0  0
 11 13  1  0  0  0  0
 11 41  1  0  0  0  0
 12 14  1  0  0  0  0
 12 42  1  0  0  0  0
 13 18  2  0  0  0  0
 13 19  1  0  0  0  0
 14 15  1  0  0  0  0
 15 16  2  0  0  0  0
 15 17  1  0  0  0  0
 16 20  1  0  0  0  0
 17 24  2  0  0  0  0
 18 22  1  0  0  0  0
 18 43  1  0  0  0  0
 19 21  2  0  0  0  0
 19 44  1  0  0  0  0
 20 23  2  0  0  0  0
 20 45  1  0  0  0  0
 21 25  1  0  0  0  0
 22 25  2  0  0  0  0
 23 24  1  0  0  0  0
 24 46  1  0  0  0  0
 26 27  1  0  0  0  0
 27 33  2  0  0  0  0
 27 47  1  0  0  0  0
 28 48  1  0  0  0  0
 28 49  1  0  0  0  0
 28 50  1  0  0  0  0
 29 51  1  0  0  0  0
 29 52  1  0  0  0  0
 29 53  1  0  0  0  0
 30 54  1  0  0  0  0
 30 55  1  0  0  0  0
 30 56  1  0  0  0  0
 31 57  1  0  0  0  0
 31 58  1  0  0  0  0
 31 59  1  0  0  0  0
 32 60  1  0  0  0  0
 32 61  1  0  0  0  0
 32 62  1  0  0  0  0
 33 34  1  0  0  0  0
 33 63  1  0  0  0  0
 34 35  2  0  0  0  0
 34 36  1  0  0  0  0
 35 37  1  0  0  0  0
 35 64  1  0  0  0  0
 36 38  2  0  0  0  0
 36 65  1  0  0  0  0
 37 39  2  0  0  0  0
 37 66  1  0  0  0  0
 38 39  1  0  0  0  0
 38 67  1  0  0  0  0
 40 68  1  0  0  0  0
 40 69  1  0  0  0  0
 40 70  1  0  0  0  0
M  END
> <PUBCHEM_COMPOUND_CID>
122179398

> <PUBCHEM_CONFORMER_RMSD>
1.2

> <PUBCHEM_CONFORMER_DIVERSEORDER>
1
9
11
6
10
8
12
3
5
2
4
7

> <PUBCHEM_MMFF94_PARTIAL_CHARGES>
50
1 -0.36
10 -0.36
11 0.42
12 0.34
13 -0.14
14 0.42
15 0.09
16 0.08
17 0.08
18 -0.15
19 -0.15
2 -0.43
20 -0.15
21 0.08
22 0.08
23 0.08
24 -0.15
25 0.08
26 0.71
27 -0.14
28 0.28
29 0.28
3 -0.57
30 0.28
31 0.28
32 0.28
33 -0.18
34 0.03
35 -0.15
36 -0.15
37 -0.15
38 -0.15
39 0.08
4 -0.36
40 0.28
43 0.15
44 0.15
45 0.15
46 0.15
47 0.15
5 -0.36
6 -0.36
63 0.15
64 0.15
65 0.15
66 0.15
67 0.15
7 -0.36
8 -0.36
9 -0.57

> <PUBCHEM_EFFECTIVE_ROTOR_COUNT>
11.6

> <PUBCHEM_PHARMACOPHORE_FEATURES>
13
1 1 acceptor
1 10 acceptor
1 3 acceptor
1 4 acceptor
1 5 acceptor
1 6 acceptor
1 7 acceptor
1 8 acceptor
1 9 acceptor
6 1 11 12 14 15 16 rings
6 13 18 19 21 22 25 rings
6 15 16 17 20 23 24 rings
6 34 35 36 37 38 39 rings

> <PUBCHEM_HEAVY_ATOM_COUNT>
40

> <PUBCHEM_ATOM_DEF_STEREO_COUNT>
2

> <PUBCHEM_ATOM_UDEF_STEREO_COUNT>
0

> <PUBCHEM_BOND_DEF_STEREO_COUNT>
1

> <PUBCHEM_BOND_UDEF_STEREO_COUNT>
0

> <PUBCHEM_ISOTOPIC_ATOM_COUNT>
0

> <PUBCHEM_COMPONENT_COUNT>
1

> <PUBCHEM_CACTVS_TAUTO_COUNT>
1

> <PUBCHEM_CONFORMER_ID>
07484F4600000001

> <PUBCHEM_MMFF94_ENERGY>
176.0148

> <PUBCHEM_FEATURE_SELFOVERLAP>
66.034

> <PUBCHEM_SHAPE_FINGERPRINT>
10050765 1 17905331724544858542
102385 1 17690567381649002310
10462674 125 18130796615987607778
10462674 369 18335423435035193039
10653451 467 18263917912231483440
11093857 51 17829622999623957693
11115154 58 18339367375139198691
11297750 10 18342729686198133688
11331351 85 17846504707518681183
11386260 185 18262226838041832039
11411753 29 17702664334265631482
11720765 8 18339644550448243321
12166972 35 18272934951282290107
12440605 4 17756998800599368826
12741549 16 17895185623946778916
12788726 201 18188490156214426834
13617811 41 18336834186786679948
13631057 29 18337958866685329470
13835254 42 18339360739098331730
14068700 675 18059860558338249609
14400156 413 18261669371928756612
14681490 219 18261674761906951403
15200665 1 17544479652321070162
15351339 4 17822566093404791939
15400415 2 17258501575191981321
15419008 47 17894908534342732663
15439362 3 18050848015949552161
15979999 66 18408044022081566831
16988056 13 18335418036530683837
18365409 1 17903084334718373837
21049683 271 18410857672337051822
21133410 230 18340192077923321504
23559900 14 18264489658399103307
249057 3 18411701028116681095
283562 15 18190467065252090114
4066623 53 18333453140342253436
4408954 87 17051645581743336657
44317340 157 18195249047970295923
508180 173 18186801370899751321
5219985 9 18412831265665575306
59521099 67 18342737460004724889
6004065 56 18411138073551521618
6697151 62 18337375128752786675

> <PUBCHEM_SHAPE_MULTIPOLES>
764.49
19.14
8.97
1.78
37.58
15.96
-0.88
-34.18
5.54
-6.56
-0.38
0.23
2.81
1.93

> <PUBCHEM_SHAPE_SELFOVERLAP>
1653.964

> <PUBCHEM_SHAPE_VOLUME>
421.2

> <PUBCHEM_COORDINATE_TYPE>
2
5
10

$$$$