122179400
  -OEChem-03242010103D

 78 81  0     1  0  0  0  0  0999 V2000
    3.9387    0.2033   -0.1390 O   0  0  0  0  0  0  0  0  0  0  0  0
    0.3387   -0.5737   -0.0983 O   0  0  0  0  0  0  0  0  0  0  0  0
    1.4310   -3.0453   -0.1292 O   0  0  0  0  0  0  0  0  0  0  0  0
    3.4703   -4.6238   -0.4466 O   0  0  0  0  0  0  0  0  0  0  0  0
    1.8541    3.9632    2.7519 O   0  0  0  0  0  0  0  0  0  0  0  0
    0.9486    4.7485   -1.8851 O   0  0  0  0  0  0  0  0  0  0  0  0
    7.7354   -2.5644   -0.7499 O   0  0  0  0  0  0  0  0  0  0  0  0
    1.0282    5.6640    0.7276 O   0  0  0  0  0  0  0  0  0  0  0  0
   -0.3471   -1.4043    1.9457 O   0  0  0  0  0  0  0  0  0  0  0  0
   -6.2973    0.8275   -2.0534 O   0  0  0  0  0  0  0  0  0  0  0  0
   -7.7232   -2.2822    1.2979 O   0  0  0  0  0  0  0  0  0  0  0  0
   -8.3238   -0.6026   -0.8204 O   0  0  0  0  0  0  0  0  0  0  0  0
    2.5476    0.3345   -0.4719 C   0  0  1  0  0  0  0  0  0  0  0  0
    1.6971   -0.6833    0.2901 C   0  0  2  0  0  0  0  0  0  0  0  0
    2.1413    1.7604   -0.1508 C   0  0  0  0  0  0  0  0  0  0  0  0
    2.1764   -2.0753   -0.0589 C   0  0  0  0  0  0  0  0  0  0  0  0
    3.6295   -2.2126   -0.2796 C   0  0  0  0  0  0  0  0  0  0  0  0
    4.4280   -1.0666   -0.2908 C   0  0  0  0  0  0  0  0  0  0  0  0
    4.2037   -3.4757   -0.4469 C   0  0  0  0  0  0  0  0  0  0  0  0
    1.7257    2.6140   -1.1727 C   0  0  0  0  0  0  0  0  0  0  0  0
    2.1834    2.2180    1.1661 C   0  0  0  0  0  0  0  0  0  0  0  0
    5.8111   -1.1885   -0.4354 C   0  0  0  0  0  0  0  0  0  0  0  0
    1.8101    3.5291    1.4612 C   0  0  0  0  0  0  0  0  0  0  0  0
    1.3522    3.9252   -0.8777 C   0  0  0  0  0  0  0  0  0  0  0  0
    6.3876   -2.4484   -0.5989 C   0  0  0  0  0  0  0  0  0  0  0  0
    5.5849   -3.5890   -0.6093 C   0  0  0  0  0  0  0  0  0  0  0  0
    1.3943    4.3827    0.4393 C   0  0  0  0  0  0  0  0  0  0  0  0
   -0.5833   -0.9704    0.8294 C   0  0  0  0  0  0  0  0  0  0  0  0
   -1.9321   -0.7838    0.2481 C   0  0  0  0  0  0  0  0  0  0  0  0
    3.2742   -5.2668    0.8114 C   0  0  0  0  0  0  0  0  0  0  0  0
    2.2907    3.0272    3.7355 C   0  0  0  0  0  0  0  0  0  0  0  0
    0.9346    4.2017   -3.2025 C   0  0  0  0  0  0  0  0  0  0  0  0
    8.4967   -1.3578   -0.7313 C   0  0  0  0  0  0  0  0  0  0  0  0
   -3.0138   -1.1048    0.9721 C   0  0  0  0  0  0  0  0  0  0  0  0
    2.0547    6.6530    0.6944 C   0  0  0  0  0  0  0  0  0  0  0  0
   -4.4043   -0.9740    0.5021 C   0  0  0  0  0  0  0  0  0  0  0  0
   -5.4223   -1.6960    1.1253 C   0  0  0  0  0  0  0  0  0  0  0  0
   -4.7028   -0.1275   -0.5655 C   0  0  0  0  0  0  0  0  0  0  0  0
   -6.0192   -0.0028   -1.0099 C   0  0  0  0  0  0  0  0  0  0  0  0
   -6.7386   -1.5713    0.6810 C   0  0  0  0  0  0  0  0  0  0  0  0
   -7.0370   -0.7247   -0.3865 C   0  0  0  0  0  0  0  0  0  0  0  0
   -5.1991    1.5285   -2.6341 C   0  0  0  0  0  0  0  0  0  0  0  0
   -8.0077   -3.5801    0.7789 C   0  0  0  0  0  0  0  0  0  0  0  0
   -9.1170    0.4150   -0.2135 C   0  0  0  0  0  0  0  0  0  0  0  0
    2.4407    0.1733   -1.5548 H   0  0  0  0  0  0  0  0  0  0  0  0
    1.8245   -0.5692    1.3746 H   0  0  0  0  0  0  0  0  0  0  0  0
    1.7120    2.2056   -2.1772 H   0  0  0  0  0  0  0  0  0  0  0  0
    2.5280    1.5205    1.9210 H   0  0  0  0  0  0  0  0  0  0  0  0
    6.3847   -0.2673   -0.4215 H   0  0  0  0  0  0  0  0  0  0  0  0
    6.0400   -4.5682   -0.7383 H   0  0  0  0  0  0  0  0  0  0  0  0
   -1.9783   -0.4105   -0.7681 H   0  0  0  0  0  0  0  0  0  0  0  0
    2.5110   -6.0397    0.6859 H   0  0  0  0  0  0  0  0  0  0  0  0
    2.9354   -4.5598    1.5756 H   0  0  0  0  0  0  0  0  0  0  0  0
    4.2047   -5.7436    1.1351 H   0  0  0  0  0  0  0  0  0  0  0  0
    3.3301    2.7233    3.5707 H   0  0  0  0  0  0  0  0  0  0  0  0
    2.2604    3.5397    4.7028 H   0  0  0  0  0  0  0  0  0  0  0  0
    1.6109    2.1713    3.8093 H   0  0  0  0  0  0  0  0  0  0  0  0
    0.5885    4.9933   -3.8754 H   0  0  0  0  0  0  0  0  0  0  0  0
    1.9402    3.9213   -3.5343 H   0  0  0  0  0  0  0  0  0  0  0  0
    0.2196    3.3766   -3.2899 H   0  0  0  0  0  0  0  0  0  0  0  0
    9.5472   -1.6368   -0.8641 H   0  0  0  0  0  0  0  0  0  0  0  0
    8.4217   -0.8491    0.2359 H   0  0  0  0  0  0  0  0  0  0  0  0
    8.2327   -0.7020   -1.5679 H   0  0  0  0  0  0  0  0  0  0  0  0
   -2.9005   -1.5025    1.9780 H   0  0  0  0  0  0  0  0  0  0  0  0
    1.6078    7.6190    0.9450 H   0  0  0  0  0  0  0  0  0  0  0  0
    2.4933    6.7199   -0.3062 H   0  0  0  0  0  0  0  0  0  0  0  0
    2.8323    6.4262    1.4306 H   0  0  0  0  0  0  0  0  0  0  0  0
   -5.2005   -2.3593    1.9586 H   0  0  0  0  0  0  0  0  0  0  0  0
   -3.8987    0.4428   -1.0121 H   0  0  0  0  0  0  0  0  0  0  0  0
   -5.6023    2.1339   -3.4528 H   0  0  0  0  0  0  0  0  0  0  0  0
   -4.4697    0.8428   -3.0791 H   0  0  0  0  0  0  0  0  0  0  0  0
   -4.7422    2.2251   -1.9228 H   0  0  0  0  0  0  0  0  0  0  0  0
   -8.8184   -4.0150    1.3698 H   0  0  0  0  0  0  0  0  0  0  0  0
   -7.1285   -4.2268    0.8610 H   0  0  0  0  0  0  0  0  0  0  0  0
   -8.3311   -3.5156   -0.2648 H   0  0  0  0  0  0  0  0  0  0  0  0
   -9.2155    0.2367    0.8620 H   0  0  0  0  0  0  0  0  0  0  0  0
   -8.6797    1.4025   -0.3918 H   0  0  0  0  0  0  0  0  0  0  0  0
  -10.1127    0.3875   -0.6645 H   0  0  0  0  0  0  0  0  0  0  0  0
  1 13  1  0  0  0  0
  1 18  1  0  0  0  0
  2 14  1  0  0  0  0
  2 28  1  0  0  0  0
  3 16  2  0  0  0  0
  4 19  1  0  0  0  0
  4 30  1  0  0  0  0
  5 23  1  0  0  0  0
  5 31  1  0  0  0  0
  6 24  1  0  0  0  0
  6 32  1  0  0  0  0
  7 25  1  0  0  0  0
  7 33  1  0  0  0  0
  8 27  1  0  0  0  0
  8 35  1  0  0  0  0
  9 28  2  0  0  0  0
 10 39  1  0  0  0  0
 10 42  1  0  0  0  0
 11 40  1  0  0  0  0
 11 43  1  0  0  0  0
 12 41  1  0  0  0  0
 12 44  1  0  0  0  0
 13 14  1  0  0  0  0
 13 15  1  0  0  0  0
 13 45  1  0  0  0  0
 14 16  1  0  0  0  0
 14 46  1  0  0  0  0
 15 20  2  0  0  0  0
 15 21  1  0  0  0  0
 16 17  1  0  0  0  0
 17 18  2  0  0  0  0
 17 19  1  0  0  0  0
 18 22  1  0  0  0  0
 19 26  2  0  0  0  0
 20 24  1  0  0  0  0
 20 47  1  0  0  0  0
 21 23  2  0  0  0  0
 21 48  1  0  0  0  0
 22 25  2  0  0  0  0
 22 49  1  0  0  0  0
 23 27  1  0  0  0  0
 24 27  2  0  0  0  0
 25 26  1  0  0  0  0
 26 50  1  0  0  0  0
 28 29  1  0  0  0  0
 29 34  2  0  0  0  0
 29 51  1  0  0  0  0
 30 52  1  0  0  0  0
 30 53  1  0  0  0  0
 30 54  1  0  0  0  0
 31 55  1  0  0  0  0
 31 56  1  0  0  0  0
 31 57  1  0  0  0  0
 32 58  1  0  0  0  0
 32 59  1  0  0  0  0
 32 60  1  0  0  0  0
 33 61  1  0  0  0  0
 33 62  1  0  0  0  0
 33 63  1  0  0  0  0
 34 36  1  0  0  0  0
 34 64  1  0  0  0  0
 35 65  1  0  0  0  0
 35 66  1  0  0  0  0
 35 67  1  0  0  0  0
 36 37  2  0  0  0  0
 36 38  1  0  0  0  0
 37 40  1  0  0  0  0
 37 68  1  0  0  0  0
 38 39  2  0  0  0  0
 38 69  1  0  0  0  0
 39 41  1  0  0  0  0
 40 41  2  0  0  0  0
 42 70  1  0  0  0  0
 42 71  1  0  0  0  0
 42 72  1  0  0  0  0
 43 73  1  0  0  0  0
 43 74  1  0  0  0  0
 43 75  1  0  0  0  0
 44 76  1  0  0  0  0
 44 77  1  0  0  0  0
 44 78  1  0  0  0  0
M  END
> <PUBCHEM_COMPOUND_CID>
122179400

> <PUBCHEM_CONFORMER_RMSD>
1.2

> <PUBCHEM_CONFORMER_DIVERSEORDER>
4
18
20
11
21
19
13
8
1
14
2
9
17
12
10
3
6
16
15
5
7

> <PUBCHEM_MMFF94_PARTIAL_CHARGES>
52
1 -0.36
10 -0.36
11 -0.36
12 -0.36
13 0.42
14 0.34
15 -0.14
16 0.42
17 0.09
18 0.08
19 0.08
2 -0.43
20 -0.15
21 -0.15
22 -0.15
23 0.08
24 0.08
25 0.08
26 -0.15
27 0.08
28 0.71
29 -0.14
3 -0.57
30 0.28
31 0.28
32 0.28
33 0.28
34 -0.18
35 0.28
36 0.03
37 -0.15
38 -0.15
39 0.08
4 -0.36
40 0.08
41 0.08
42 0.28
43 0.28
44 0.28
47 0.15
48 0.15
49 0.15
5 -0.36
50 0.15
51 0.15
6 -0.36
64 0.15
68 0.15
69 0.15
7 -0.36
8 -0.36
9 -0.57

> <PUBCHEM_EFFECTIVE_ROTOR_COUNT>
13.6

> <PUBCHEM_PHARMACOPHORE_FEATURES>
15
1 1 acceptor
1 10 acceptor
1 11 acceptor
1 12 acceptor
1 3 acceptor
1 4 acceptor
1 5 acceptor
1 6 acceptor
1 7 acceptor
1 8 acceptor
1 9 acceptor
6 1 13 14 16 17 18 rings
6 15 20 21 23 24 27 rings
6 17 18 19 22 25 26 rings
6 36 37 38 39 40 41 rings

> <PUBCHEM_HEAVY_ATOM_COUNT>
44

> <PUBCHEM_ATOM_DEF_STEREO_COUNT>
2

> <PUBCHEM_ATOM_UDEF_STEREO_COUNT>
0

> <PUBCHEM_BOND_DEF_STEREO_COUNT>
1

> <PUBCHEM_BOND_UDEF_STEREO_COUNT>
0

> <PUBCHEM_ISOTOPIC_ATOM_COUNT>
0

> <PUBCHEM_COMPONENT_COUNT>
1

> <PUBCHEM_CACTVS_TAUTO_COUNT>
1

> <PUBCHEM_CONFORMER_ID>
07484F4800000004

> <PUBCHEM_MMFF94_ENERGY>
208.3948

> <PUBCHEM_FEATURE_SELFOVERLAP>
76.2

> <PUBCHEM_SHAPE_FINGERPRINT>
10462674 125 18059021571074324946
10462674 369 18335145228555000902
10653451 467 18336258038066292784
11093857 51 18046637964415357028
11115154 58 18335990757349853409
11331351 85 17703795769282213374
11720765 8 18412826910432055032
12741549 16 18040431080169641244
13835254 42 18196374719795154122
14068700 675 17989490688541790856
15351339 4 17823975632798634667
15419008 47 18041278786180454893
15439362 3 18051133889510922080
15979999 66 18408045095628270388
16988056 13 18408601491435802196
18365409 1 17760661269484230020
21049683 271 18410580582991396734
21133410 127 17753885323220486549
21133410 230 18341034248201000808
23559900 14 18409729608057030923
24771750 20 18045234974750662318
249057 3 18341896303001574567
283562 15 18191596251104235346
4066623 53 18334579006274537876
44317340 157 18340207514108817195
508180 173 18113621162193473201
6004065 56 18411141346706939354
6086070 43 18261107457452395355
6697151 62 18340186524023620327
9962374 69 18341610473402915651

> <PUBCHEM_SHAPE_MULTIPOLES>
835.07
21.81
8.32
2.13
40.36
10.49
-0.44
-24.72
4.9
-12.29
-1.13
0.33
3.28
4.29

> <PUBCHEM_SHAPE_SELFOVERLAP>
1799.471

> <PUBCHEM_SHAPE_VOLUME>
464

> <PUBCHEM_COORDINATE_TYPE>
2
5
10

$$$$