13113660
  -OEChem-03242010103D

 30 32  0     0  0  0  0  0  0999 V2000
    0.4637    2.6238    0.0006 O   0  0  0  0  0  0  0  0  0  0  0  0
    0.4250   -1.4259    0.0008 N   0  0  0  0  0  0  0  0  0  0  0  0
   -0.8029   -0.7514    0.0008 C   0  0  0  0  0  0  0  0  0  0  0  0
   -0.8336    0.6531    0.0008 C   0  0  0  0  0  0  0  0  0  0  0  0
   -2.0116   -1.4559    0.0002 C   0  0  0  0  0  0  0  0  0  0  0  0
    1.6654   -0.7748    0.0003 C   0  0  0  0  0  0  0  0  0  0  0  0
    1.7227    0.6288    0.0005 C   0  0  0  0  0  0  0  0  0  0  0  0
    0.4518    1.3997    0.0010 C   0  0  0  0  0  0  0  0  0  0  0  0
   -2.0501    1.3415    0.0002 C   0  0  0  0  0  0  0  0  0  0  0  0
   -3.2461    0.6245   -0.0003 C   0  0  0  0  0  0  0  0  0  0  0  0
   -3.2274   -0.7700   -0.0005 C   0  0  0  0  0  0  0  0  0  0  0  0
   -2.0441   -2.9509    0.0005 C   0  0  0  0  0  0  0  0  0  0  0  0
    2.8604   -1.5022   -0.0007 C   0  0  0  0  0  0  0  0  0  0  0  0
    2.9522    1.2939    0.0001 C   0  0  0  0  0  0  0  0  0  0  0  0
   -4.5491    1.3509   -0.0020 C   0  0  0  0  0  0  0  0  0  0  0  0
    4.0892   -0.8395   -0.0014 C   0  0  0  0  0  0  0  0  0  0  0  0
    4.1344    0.5544   -0.0008 C   0  0  0  0  0  0  0  0  0  0  0  0
    0.4297   -2.4368    0.0010 H   0  0  0  0  0  0  0  0  0  0  0  0
   -2.0726    2.4282   -0.0019 H   0  0  0  0  0  0  0  0  0  0  0  0
   -4.1663   -1.3192   -0.0032 H   0  0  0  0  0  0  0  0  0  0  0  0
   -1.5487   -3.3445   -0.8934 H   0  0  0  0  0  0  0  0  0  0  0  0
   -1.5489   -3.3442    0.8945 H   0  0  0  0  0  0  0  0  0  0  0  0
   -3.0685   -3.3391    0.0005 H   0  0  0  0  0  0  0  0  0  0  0  0
    2.8438   -2.5893   -0.0011 H   0  0  0  0  0  0  0  0  0  0  0  0
    3.0086    2.3787    0.0003 H   0  0  0  0  0  0  0  0  0  0  0  0
   -4.8829    1.5207   -1.0304 H   0  0  0  0  0  0  0  0  0  0  0  0
   -5.3198    0.7809    0.5281 H   0  0  0  0  0  0  0  0  0  0  0  0
   -4.4636    2.3189    0.5033 H   0  0  0  0  0  0  0  0  0  0  0  0
    5.0127   -1.4115   -0.0022 H   0  0  0  0  0  0  0  0  0  0  0  0
    5.0931    1.0651   -0.0012 H   0  0  0  0  0  0  0  0  0  0  0  0
  1  8  2  0  0  0  0
  2  3  1  0  0  0  0
  2  6  1  0  0  0  0
  2 18  1  0  0  0  0
  3  4  1  0  0  0  0
  3  5  2  0  0  0  0
  4  8  1  0  0  0  0
  4  9  2  0  0  0  0
  5 11  1  0  0  0  0
  5 12  1  0  0  0  0
  6  7  1  0  0  0  0
  6 13  2  0  0  0  0
  7  8  1  0  0  0  0
  7 14  2  0  0  0  0
  9 10  1  0  0  0  0
  9 19  1  0  0  0  0
 10 11  2  0  0  0  0
 10 15  1  0  0  0  0
 11 20  1  0  0  0  0
 12 21  1  0  0  0  0
 12 22  1  0  0  0  0
 12 23  1  0  0  0  0
 13 16  1  0  0  0  0
 13 24  1  0  0  0  0
 14 17  1  0  0  0  0
 14 25  1  0  0  0  0
 15 26  1  0  0  0  0
 15 27  1  0  0  0  0
 15 28  1  0  0  0  0
 16 17  2  0  0  0  0
 16 29  1  0  0  0  0
 17 30  1  0  0  0  0
M  END
> <PUBCHEM_COMPOUND_CID>
13113660

> <PUBCHEM_CONFORMER_RMSD>
0.4

> <PUBCHEM_CONFORMER_DIVERSEORDER>
1

> <PUBCHEM_MMFF94_PARTIAL_CHARGES>
24
1 -0.57
10 -0.14
11 -0.15
12 0.14
13 -0.15
14 -0.15
15 0.14
16 -0.15
17 -0.15
18 0.4
19 0.15
2 -0.6
20 0.15
24 0.15
25 0.15
29 0.15
3 0.1
30 0.15
4 0.09
5 -0.14
6 0.1
7 0.09
8 0.4
9 -0.15

> <PUBCHEM_EFFECTIVE_ROTOR_COUNT>
0

> <PUBCHEM_PHARMACOPHORE_FEATURES>
6
1 1 acceptor
1 2 cation
1 2 donor
6 2 3 4 6 7 8 rings
6 3 4 5 9 10 11 rings
6 6 7 13 14 16 17 rings

> <PUBCHEM_HEAVY_ATOM_COUNT>
17

> <PUBCHEM_ATOM_DEF_STEREO_COUNT>
0

> <PUBCHEM_ATOM_UDEF_STEREO_COUNT>
0

> <PUBCHEM_BOND_DEF_STEREO_COUNT>
0

> <PUBCHEM_BOND_UDEF_STEREO_COUNT>
0

> <PUBCHEM_ISOTOPIC_ATOM_COUNT>
0

> <PUBCHEM_COMPONENT_COUNT>
1

> <PUBCHEM_CACTVS_TAUTO_COUNT>
3

> <PUBCHEM_CONFORMER_ID>
00C8193C00000001

> <PUBCHEM_MMFF94_ENERGY>
57.7917

> <PUBCHEM_FEATURE_SELFOVERLAP>
30.492

> <PUBCHEM_SHAPE_FINGERPRINT>
10062212 137 18336256920562451250
10608611 8 18411978104587191032
10616163 171 18339927124931047174
10967382 1 18338798905578028902
11132069 177 18410569595979828320
11471102 20 18410852131660571220
11578080 2 16986298642081617835
12403814 3 17676486129562775021
12500047 106 18411975879915295033
13140716 1 18410567397083290490
13214271 11 18342734161026164702
13221675 6 18409166597388309762
13380535 76 18341895160555545855
13760787 19 18260834812796478446
14115302 16 18334586728192965820
14144814 61 18410856563950633234
14178342 30 18266442386211292560
14790565 3 18267311919758568297
15099037 51 18409727323002404501
15196674 1 18410575093258301254
15309172 13 18339370664941702907
15375358 24 18343863299079885582
15375462 189 18040711424973977330
15442244 35 18410573998057452072
15536298 74 18342738520570872760
16945 1 18194682802663459559
17804303 29 18412548725220275685
18186145 218 17821725026980244382
19107657 46 18411136956859459326
19591789 44 18122064204418921929
200 152 17917986187908045173
20510252 161 18128254484795552737
20645477 70 18341892935530378151
21029758 11 18343576326819719353
21267235 1 18410583889393924234
21501502 16 18264490761482589333
221490 88 18192438678304602466
2334 1 18338799025995381738
23366157 5 17897721209277085692
23402539 116 18272078366745692639
23463225 33 18409167710143561540
23557571 272 18272099339324505334
23558518 356 17899415577911225785
23559900 14 18342454842645308392
2748010 2 18412263960557053270
3312278 4 18412548746826799208
335352 9 18338516331026192510
34934 24 18410005537967068570
350125 39 18338521941108049049
495365 180 17417231200433239408
5104073 3 18410292527375755130
537710 114 18410860940765329652
53812653 166 18342172293309718848
54173680 148 18337955717767465195
57005193 9 18410003308557171571
69090 78 18411415090457050183
7364860 26 18125439958540799080
74978 22 18338796818397827469
7832392 63 18411134766172787746
8809292 202 18335142020019355002
9709674 26 18342179976911545254

> <PUBCHEM_SHAPE_MULTIPOLES>
339
7.43
2.47
0.61
0.87
0.66
0
-0.68
0.01
-1
0
0
0.01
0

> <PUBCHEM_SHAPE_SELFOVERLAP>
754.797

> <PUBCHEM_SHAPE_VOLUME>
181

> <PUBCHEM_COORDINATE_TYPE>
2
5
10

$$$$