137658808
  -OEChem-03242010103D

 52 55  0     0  0  0  0  0  0999 V2000
   -3.1670   -0.4003   -0.6931 O   0  0  0  0  0  0  0  0  0  0  0  0
   -4.9265    1.0822   -0.6230 O   0  0  0  0  0  0  0  0  0  0  0  0
    0.7487    2.2658    0.8202 N   0  0  0  0  0  0  0  0  0  0  0  0
    1.2240   -0.0354    0.6983 N   0  0  0  0  0  0  0  0  0  0  0  0
    3.2126   -0.8228   -0.4116 N   0  0  0  0  0  0  0  0  0  0  0  0
    0.9834   -4.9874    1.1755 N   0  0  0  0  0  0  0  0  0  0  0  0
   -3.9485   -1.3051   -1.4806 C   0  0  0  0  0  0  0  0  0  0  0  0
   -4.3498   -0.6005   -2.7757 C   0  0  0  0  0  0  0  0  0  0  0  0
   -3.0787   -2.5243   -1.7795 C   0  0  0  0  0  0  0  0  0  0  0  0
   -5.1826   -1.7097   -0.6755 C   0  0  0  0  0  0  0  0  0  0  0  0
    2.7642    1.5309   -0.3099 C   0  0  0  0  0  0  0  0  0  0  0  0
   -2.8734    1.6010    0.4726 C   0  0  0  0  0  0  0  0  0  0  0  0
    1.6026    1.2195    0.3910 C   0  0  0  0  0  0  0  0  0  0  0  0
   -0.6383    2.3321    1.0268 C   0  0  0  0  0  0  0  0  0  0  0  0
   -3.7670    0.7714   -0.3202 C   0  0  0  0  0  0  0  0  0  0  0  0
   -1.4953    1.5358    0.2671 C   0  0  0  0  0  0  0  0  0  0  0  0
    3.5611    0.4430   -0.7019 C   0  0  0  0  0  0  0  0  0  0  0  0
   -3.3947    2.4626    1.4379 C   0  0  0  0  0  0  0  0  0  0  0  0
   -1.1595    3.1938    1.9921 C   0  0  0  0  0  0  0  0  0  0  0  0
    2.0632   -0.9931    0.2726 C   0  0  0  0  0  0  0  0  0  0  0  0
    3.1385    2.8501   -0.6190 C   0  0  0  0  0  0  0  0  0  0  0  0
   -2.5377    3.2588    2.1979 C   0  0  0  0  0  0  0  0  0  0  0  0
    4.7319    0.7149   -1.4055 C   0  0  0  0  0  0  0  0  0  0  0  0
    1.6966   -2.3512    0.5794 C   0  0  0  0  0  0  0  0  0  0  0  0
    4.3137    3.0930   -1.3231 C   0  0  0  0  0  0  0  0  0  0  0  0
    5.1110    2.0241   -1.7167 C   0  0  0  0  0  0  0  0  0  0  0  0
    2.6810   -3.3153    0.7666 C   0  0  0  0  0  0  0  0  0  0  0  0
    0.3561   -2.7037    0.6899 C   0  0  0  0  0  0  0  0  0  0  0  0
    2.2757   -4.6073    1.0601 C   0  0  0  0  0  0  0  0  0  0  0  0
    0.0548   -4.0231    0.9870 C   0  0  0  0  0  0  0  0  0  0  0  0
   -5.6665   -2.5830   -1.1289 H   0  0  0  0  0  0  0  0  0  0  0  0
   -3.6078   -3.2635   -2.3895 H   0  0  0  0  0  0  0  0  0  0  0  0
   -2.1640   -2.2293   -2.3064 H   0  0  0  0  0  0  0  0  0  0  0  0
   -5.9555   -0.9397   -0.6141 H   0  0  0  0  0  0  0  0  0  0  0  0
   -4.7099   -1.3288   -3.5121 H   0  0  0  0  0  0  0  0  0  0  0  0
   -3.4956   -0.0726   -3.2154 H   0  0  0  0  0  0  0  0  0  0  0  0
   -2.7577   -3.0086   -0.8503 H   0  0  0  0  0  0  0  0  0  0  0  0
   -5.1556    0.1290   -2.6634 H   0  0  0  0  0  0  0  0  0  0  0  0
   -4.9092   -1.9730    0.3529 H   0  0  0  0  0  0  0  0  0  0  0  0
    1.2548    3.0393    1.2429 H   0  0  0  0  0  0  0  0  0  0  0  0
   -1.0869    0.8859   -0.5032 H   0  0  0  0  0  0  0  0  0  0  0  0
   -4.4658    2.5235    1.6128 H   0  0  0  0  0  0  0  0  0  0  0  0
   -0.5032    3.8192    2.5919 H   0  0  0  0  0  0  0  0  0  0  0  0
    2.5342    3.7065   -0.3335 H   0  0  0  0  0  0  0  0  0  0  0  0
   -2.9433    3.9289    2.9502 H   0  0  0  0  0  0  0  0  0  0  0  0
    5.3734   -0.1042   -1.7250 H   0  0  0  0  0  0  0  0  0  0  0  0
    4.6055    4.1103   -1.5655 H   0  0  0  0  0  0  0  0  0  0  0  0
    6.0298    2.2050   -2.2671 H   0  0  0  0  0  0  0  0  0  0  0  0
    3.7410   -3.0921    0.7010 H   0  0  0  0  0  0  0  0  0  0  0  0
   -0.4516   -1.9933    0.5441 H   0  0  0  0  0  0  0  0  0  0  0  0
    3.0043   -5.3958    1.2175 H   0  0  0  0  0  0  0  0  0  0  0  0
   -0.9757   -4.3498    1.0813 H   0  0  0  0  0  0  0  0  0  0  0  0
  1  7  1  0  0  0  0
  1 15  1  0  0  0  0
  2 15  2  0  0  0  0
  3 13  1  0  0  0  0
  3 14  1  0  0  0  0
  3 40  1  0  0  0  0
  4 13  2  0  0  0  0
  4 20  1  0  0  0  0
  5 17  1  0  0  0  0
  5 20  2  0  0  0  0
  6 29  2  0  0  0  0
  6 30  1  0  0  0  0
  7  8  1  0  0  0  0
  7  9  1  0  0  0  0
  7 10  1  0  0  0  0
  8 35  1  0  0  0  0
  8 36  1  0  0  0  0
  8 38  1  0  0  0  0
  9 32  1  0  0  0  0
  9 33  1  0  0  0  0
  9 37  1  0  0  0  0
 10 31  1  0  0  0  0
 10 34  1  0  0  0  0
 10 39  1  0  0  0  0
 11 13  1  0  0  0  0
 11 17  1  0  0  0  0
 11 21  2  0  0  0  0
 12 15  1  0  0  0  0
 12 16  2  0  0  0  0
 12 18  1  0  0  0  0
 14 16  1  0  0  0  0
 14 19  2  0  0  0  0
 16 41  1  0  0  0  0
 17 23  2  0  0  0  0
 18 22  2  0  0  0  0
 18 42  1  0  0  0  0
 19 22  1  0  0  0  0
 19 43  1  0  0  0  0
 20 24  1  0  0  0  0
 21 25  1  0  0  0  0
 21 44  1  0  0  0  0
 22 45  1  0  0  0  0
 23 26  1  0  0  0  0
 23 46  1  0  0  0  0
 24 27  2  0  0  0  0
 24 28  1  0  0  0  0
 25 26  2  0  0  0  0
 25 47  1  0  0  0  0
 26 48  1  0  0  0  0
 27 29  1  0  0  0  0
 27 49  1  0  0  0  0
 28 30  2  0  0  0  0
 28 50  1  0  0  0  0
 29 51  1  0  0  0  0
 30 52  1  0  0  0  0
M  END
> <PUBCHEM_COMPOUND_CID>
137658808

> <PUBCHEM_CONFORMER_RMSD>
0.8

> <PUBCHEM_CONFORMER_DIVERSEORDER>
1
204
125
185
166
144
206
77
121
171
213
215
17
11
52
173
160
210
97
135
115
201
138
105
25
162
3
41
174
169
149
8
197
208
24
137
4
93
13
139
104
16
148
178
108
187
177
170
110
57
191
53
146
2
59
40
186
47
158
62
27
44
111
107
45
84
143
147
196
150
76
199
65
192
123
112
32
67
212
114
188
66
58
198
34
200
61
64
89
73
131
49
211
26
54
161
142
157
92
117
126
86
127
154
55
136
193
96
165
159
194
82
80
20
95
134
79
87
183
78
129
48
30
130
113
153
90
128
203
167
189
23
181
151
88
182
106
39
72
12
164
155
51
56
81
21
176
100
122
190
29
116
140
101
132
145
83
42
118
168
46
207
214
71
6
14
99
60
133
9
195
141
120
102
163
175
10
156
205
68
119
180
209
63
5
179
37
91
75
124
85
103
35
98
172
22
184
152
19
74
15
31
7
36
70
43
50
69
109
28
94
38
202
18
33

> <PUBCHEM_MMFF94_PARTIAL_CHARGES>
38
1 -0.43
12 0.09
13 0.41
14 0.1
15 0.63
16 -0.15
17 0.31
18 -0.15
19 -0.15
2 -0.57
20 0.62
21 -0.15
22 -0.15
23 -0.15
25 -0.15
26 -0.15
27 -0.15
28 -0.15
29 0.16
3 -0.6
30 0.16
4 -0.62
40 0.4
41 0.15
42 0.15
43 0.15
44 0.15
45 0.15
46 0.15
47 0.15
48 0.15
49 0.15
5 -0.62
50 0.15
51 0.15
52 0.15
6 -0.62
7 0.28

> <PUBCHEM_EFFECTIVE_ROTOR_COUNT>
6

> <PUBCHEM_PHARMACOPHORE_FEATURES>
10
1 2 acceptor
1 3 donor
1 6 acceptor
3 3 4 13 cation
3 4 5 20 cation
4 7 8 9 10 hydrophobe
6 11 17 21 23 25 26 rings
6 12 14 16 18 19 22 rings
6 4 5 11 13 17 20 rings
6 6 24 27 28 29 30 rings

> <PUBCHEM_HEAVY_ATOM_COUNT>
30

> <PUBCHEM_ATOM_DEF_STEREO_COUNT>
0

> <PUBCHEM_ATOM_UDEF_STEREO_COUNT>
0

> <PUBCHEM_BOND_DEF_STEREO_COUNT>
0

> <PUBCHEM_BOND_UDEF_STEREO_COUNT>
0

> <PUBCHEM_ISOTOPIC_ATOM_COUNT>
0

> <PUBCHEM_COMPONENT_COUNT>
1

> <PUBCHEM_CACTVS_TAUTO_COUNT>
-1

> <PUBCHEM_CONFORMER_ID>
083481B800000001

> <PUBCHEM_MMFF94_ENERGY>
113.726

> <PUBCHEM_FEATURE_SELFOVERLAP>
50.918

> <PUBCHEM_SHAPE_FINGERPRINT>
10319688 77 17249184931457712882
10622 236 18125704700720349191
108634 29 17909266124423479508
10940486 97 17837768933238866934
11069576 57 18267283375141740359
11445158 3 17100630237625622261
114674 6 17550924320153983515
12218070 45 17837746968819158194
12553582 1 17988071305567792533
12788726 201 17845653647565904705
13004483 165 16819670532351350474
13726171 33 17488761024352930864
138480 1 17613455341626917752
13911987 19 18118131487560117997
14114206 34 18129647703978608237
14114211 68 18260833747534196503
14117953 113 17116348469266534029
14251757 5 17758122879297398750
14279260 333 18342741828128682430
14289585 56 17896614881678467956
14931854 50 18340763853379499029
15250474 111 18341612547407161977
15351339 4 18265603458655345579
15537594 2 18272096002414296185
15842332 3 18198627622751069281
15968369 26 17191203740672083653
16067689 391 18129962160130783766
17138139 8 18200584933805059852
17909252 39 17417822780992031756
19311894 1 17987236822939065759
19319366 153 18410860962355879347
20028762 73 18340768148916935462
20505436 4 17912398383479356064
20775438 99 16473156728201803143
21054139 6 18412545418723354828
21315764 21 17756107174178535583
22113638 7 17546440077453566755
22393880 68 18343302565330264756
235170 7 17604416479741460605
238918 7 16038848591694764601
24771293 8 18267861680690122850
312425 83 17751340816952766293
340366 18 17618222810727957849
3493558 16 16743963126639881556
3534868 343 18055607583392262023
4409770 3 17902241344617716722
474144 1 18338787914841354983
50150288 127 17701568163298804211
86090 222 17472951366549771463
9982175 49 18264210202035909594

> <PUBCHEM_SHAPE_MULTIPOLES>
585.72
10.07
6.29
2
2.65
6.52
-0.52
-3.63
-7.14
-2.64
3.76
1.43
-0.48
-4.87

> <PUBCHEM_SHAPE_SELFOVERLAP>
1292.181

> <PUBCHEM_SHAPE_VOLUME>
313.7

> <PUBCHEM_COORDINATE_TYPE>
2
5
10

$$$$