11709536
  -OEChem-03242010103D

 44 46  0     0  0  0  0  0  0999 V2000
    5.2089   -2.3943   -0.1320 O   0  0  0  0  0  0  0  0  0  0  0  0
    5.3166    2.3700    0.1328 O   0  0  0  0  0  0  0  0  0  0  0  0
   -7.3413    0.2696    0.0130 O   0  0  0  0  0  0  0  0  0  0  0  0
    1.0438    0.0828    0.0044 C   0  0  0  0  0  0  0  0  0  0  0  0
    2.4903    0.0505    0.0023 C   0  0  0  0  0  0  0  0  0  0  0  0
   -1.7453    0.1450    0.0083 C   0  0  0  0  0  0  0  0  0  0  0  0
   -3.1916    0.1773    0.0104 C   0  0  0  0  0  0  0  0  0  0  0  0
    0.3699    1.1763   -0.5393 C   0  0  0  0  0  0  0  0  0  0  0  0
    0.3233   -0.9794    0.5504 C   0  0  0  0  0  0  0  0  0  0  0  0
   -1.0247    1.2073   -0.5375 C   0  0  0  0  0  0  0  0  0  0  0  0
   -1.0713   -0.9483    0.5523 C   0  0  0  0  0  0  0  0  0  0  0  0
    3.2149    1.2406    0.0684 C   0  0  0  0  0  0  0  0  0  0  0  0
    3.1602   -1.1711   -0.0653 C   0  0  0  0  0  0  0  0  0  0  0  0
    4.5547   -1.2027   -0.0667 C   0  0  0  0  0  0  0  0  0  0  0  0
    4.6093    1.2089    0.0668 C   0  0  0  0  0  0  0  0  0  0  0  0
   -3.8619    1.3985    0.0785 C   0  0  0  0  0  0  0  0  0  0  0  0
   -3.9157   -1.0129   -0.0566 C   0  0  0  0  0  0  0  0  0  0  0  0
    5.2793   -0.0126   -0.0008 C   0  0  0  0  0  0  0  0  0  0  0  0
   -5.2564    1.4295    0.0798 C   0  0  0  0  0  0  0  0  0  0  0  0
   -5.3102   -0.9821   -0.0552 C   0  0  0  0  0  0  0  0  0  0  0  0
   -5.9806    0.2392    0.0130 C   0  0  0  0  0  0  0  0  0  0  0  0
    4.4070   -3.5727   -0.1969 C   0  0  0  0  0  0  0  0  0  0  0  0
    6.7395    2.2648    0.1272 C   0  0  0  0  0  0  0  0  0  0  0  0
   -8.0188   -0.9841   -0.0572 C   0  0  0  0  0  0  0  0  0  0  0  0
    0.8880    2.0081   -1.0088 H   0  0  0  0  0  0  0  0  0  0  0  0
    0.8029   -1.8324    1.0228 H   0  0  0  0  0  0  0  0  0  0  0  0
   -1.5067    2.0616   -1.0052 H   0  0  0  0  0  0  0  0  0  0  0  0
   -1.5896   -1.7797    1.0222 H   0  0  0  0  0  0  0  0  0  0  0  0
    2.7312    2.2104    0.1527 H   0  0  0  0  0  0  0  0  0  0  0  0
    2.5777   -2.0798   -0.1577 H   0  0  0  0  0  0  0  0  0  0  0  0
   -3.3411    2.3484    0.1626 H   0  0  0  0  0  0  0  0  0  0  0  0
   -3.4365   -1.9845   -0.1421 H   0  0  0  0  0  0  0  0  0  0  0  0
    6.3606   -0.1031   -0.0053 H   0  0  0  0  0  0  0  0  0  0  0  0
   -5.7737    2.3833    0.1395 H   0  0  0  0  0  0  0  0  0  0  0  0
   -5.8105   -1.9425   -0.1162 H   0  0  0  0  0  0  0  0  0  0  0  0
    3.8121   -3.6051   -1.1160 H   0  0  0  0  0  0  0  0  0  0  0  0
    3.7941   -3.6949    0.7028 H   0  0  0  0  0  0  0  0  0  0  0  0
    5.0920   -4.4263   -0.2324 H   0  0  0  0  0  0  0  0  0  0  0  0
    7.1073    1.8295   -0.8083 H   0  0  0  0  0  0  0  0  0  0  0  0
    7.1070    1.7277    1.0082 H   0  0  0  0  0  0  0  0  0  0  0  0
    7.1388    3.2827    0.1843 H   0  0  0  0  0  0  0  0  0  0  0  0
   -7.8067   -1.5039   -0.9977 H   0  0  0  0  0  0  0  0  0  0  0  0
   -9.0930   -0.7721   -0.0445 H   0  0  0  0  0  0  0  0  0  0  0  0
   -7.8055   -1.6066    0.8185 H   0  0  0  0  0  0  0  0  0  0  0  0
  1 14  1  0  0  0  0
  1 22  1  0  0  0  0
  2 15  1  0  0  0  0
  2 23  1  0  0  0  0
  3 21  1  0  0  0  0
  3 24  1  0  0  0  0
  4  5  1  0  0  0  0
  4  8  2  0  0  0  0
  4  9  1  0  0  0  0
  5 12  2  0  0  0  0
  5 13  1  0  0  0  0
  6  7  1  0  0  0  0
  6 10  2  0  0  0  0
  6 11  1  0  0  0  0
  7 16  2  0  0  0  0
  7 17  1  0  0  0  0
  8 10  1  0  0  0  0
  8 25  1  0  0  0  0
  9 11  2  0  0  0  0
  9 26  1  0  0  0  0
 10 27  1  0  0  0  0
 11 28  1  0  0  0  0
 12 15  1  0  0  0  0
 12 29  1  0  0  0  0
 13 14  2  0  0  0  0
 13 30  1  0  0  0  0
 14 18  1  0  0  0  0
 15 18  2  0  0  0  0
 16 19  1  0  0  0  0
 16 31  1  0  0  0  0
 17 20  2  0  0  0  0
 17 32  1  0  0  0  0
 18 33  1  0  0  0  0
 19 21  2  0  0  0  0
 19 34  1  0  0  0  0
 20 21  1  0  0  0  0
 20 35  1  0  0  0  0
 22 36  1  0  0  0  0
 22 37  1  0  0  0  0
 22 38  1  0  0  0  0
 23 39  1  0  0  0  0
 23 40  1  0  0  0  0
 23 41  1  0  0  0  0
 24 42  1  0  0  0  0
 24 43  1  0  0  0  0
 24 44  1  0  0  0  0
M  END
> <PUBCHEM_COMPOUND_CID>
11709536

> <PUBCHEM_CONFORMER_RMSD>
0.8

> <PUBCHEM_CONFORMER_DIVERSEORDER>
2
1

> <PUBCHEM_MMFF94_PARTIAL_CHARGES>
31
1 -0.36
10 -0.15
11 -0.15
12 -0.15
13 -0.15
14 0.08
15 0.08
16 -0.15
17 -0.15
18 -0.15
19 -0.15
2 -0.36
20 -0.15
21 0.08
22 0.28
23 0.28
24 0.28
25 0.15
26 0.15
27 0.15
28 0.15
29 0.15
3 -0.36
30 0.15
31 0.15
32 0.15
33 0.15
34 0.15
35 0.15
8 -0.15
9 -0.15

> <PUBCHEM_EFFECTIVE_ROTOR_COUNT>
5

> <PUBCHEM_PHARMACOPHORE_FEATURES>
6
1 1 acceptor
1 2 acceptor
1 3 acceptor
6 4 6 8 9 10 11 rings
6 5 12 13 14 15 18 rings
6 7 16 17 19 20 21 rings

> <PUBCHEM_HEAVY_ATOM_COUNT>
24

> <PUBCHEM_ATOM_DEF_STEREO_COUNT>
0

> <PUBCHEM_ATOM_UDEF_STEREO_COUNT>
0

> <PUBCHEM_BOND_DEF_STEREO_COUNT>
0

> <PUBCHEM_BOND_UDEF_STEREO_COUNT>
0

> <PUBCHEM_ISOTOPIC_ATOM_COUNT>
0

> <PUBCHEM_COMPONENT_COUNT>
1

> <PUBCHEM_CACTVS_TAUTO_COUNT>
1

> <PUBCHEM_CONFORMER_ID>
00B2AC6000000002

> <PUBCHEM_MMFF94_ENERGY>
110.5384

> <PUBCHEM_FEATURE_SELFOVERLAP>
30.448

> <PUBCHEM_SHAPE_FINGERPRINT>
10 15 17822290236260952624
10165383 225 18339079406715969548
10299344 5 18059858372495495855
10411042 1 18051131394657415830
10595046 47 18343019995268041113
10835480 77 18408879620907315397
10906281 52 17677626409516146012
11315181 36 18272936042821181049
11524674 6 16056878053377546135
12107183 9 17766286370712631352
12166972 35 18410015429493600793
12236239 1 18342176653202463185
12403259 415 18040710325504593020
12516196 113 18412825798298885889
12730499 353 18411705409224993594
12788726 201 17132124519725795776
13073987 5 18413390912789191537
13533116 47 18272368655327688458
13785724 45 17624705557493310534
14170010 4 18260268572576582501
14251764 18 18202565099087361797
14341114 176 18409733954442556297
14461889 52 18335419131720639738
14849402 71 18271530909273104153
14933364 13 18411702088740786345
15183329 4 18412267207409904355
15196674 1 18409449171876654633
15250474 111 18130489916568384366
1577012 14 18202289078724736529
17844677 252 18340211786583431320
1813 80 16950285091748025268
18222031 100 16732707129394515117
18335252 98 18337394941399759843
19427546 62 18264209278839051546
20157964 124 18411700993708488874
20281389 69 18261110760161146853
20645477 70 18410856521750403726
21130935 74 18412829067080286851
21150785 3 17561084747733763069
21267235 1 18334019385358204523
21279426 13 18262796242487385317
21315763 28 18411418384380416161
21344244 78 18058717015286043080
21521721 280 18341618139575771203
220451 1 17775282789805037895
22224240 67 17822006549343942465
23081809 10 17846495916163601177
23522609 53 18122376538588812404
23536379 177 18342739594275715217
23559900 14 18339635754972003521
23569914 152 16964880885717410807
23569943 247 17826230692651208219
239999 70 18343023247212918862
255183 451 18128545860690051086
3004659 81 18334296427549104410
34797466 226 17704080615565963644
3545911 37 18408604786281976708
3663271 9 18273501156736467321
4073 2 18188213207537140594
4325135 7 18411981394484758148
4340502 62 15502369041288560848
4463277 17 18408322190192097301
465052 167 18200877271192373230
5104073 3 18334861588751119072
59755656 215 17749671796903779323
6025842 7 18413672409868343278
9831232 110 18128261073549977750
9971528 1 18113340799465598852

> <PUBCHEM_SHAPE_MULTIPOLES>
476.3
19.71
2.49
0.66
16.97
1.28
0
-0.62
0.03
-5.17
-0.1
0.01
0
0.34

> <PUBCHEM_SHAPE_SELFOVERLAP>
1041.133

> <PUBCHEM_SHAPE_VOLUME>
261.1

> <PUBCHEM_COORDINATE_TYPE>
2
5
10

$$$$