137653396
  -OEChem-03242010103D

 55 57  0     0  0  0  0  0  0999 V2000
   -4.1468   -1.8915   -0.5425 O   0  0  0  0  0  0  0  0  0  0  0  0
    4.9060   -2.5552   -1.6885 O   0  0  0  0  0  0  0  0  0  0  0  0
    5.7615    2.7378    1.7186 O   0  0  0  0  0  0  0  0  0  0  0  0
   -0.6415   -0.0617    0.3244 N   0  0  0  0  0  0  0  0  0  0  0  0
    3.6074    0.6606   -0.4359 N   0  0  0  0  0  0  0  0  0  0  0  0
    0.6700    0.5865    0.4141 C   0  0  0  0  0  0  0  0  0  0  0  0
    1.2034    0.9223   -0.9782 C   0  0  0  0  0  0  0  0  0  0  0  0
   -1.7851    0.7467    0.1333 C   0  0  0  0  0  0  0  0  0  0  0  0
    2.5985    1.5547   -0.9910 C   0  0  0  0  0  0  0  0  0  0  0  0
   -0.7164   -1.4646    0.4798 C   0  0  0  0  0  0  0  0  0  0  0  0
   -3.0259    0.1391   -0.1411 C   0  0  0  0  0  0  0  0  0  0  0  0
   -1.9303   -2.1278    0.2141 C   0  0  0  0  0  0  0  0  0  0  0  0
   -1.7708    2.1513    0.2161 C   0  0  0  0  0  0  0  0  0  0  0  0
   -3.1134   -1.3370   -0.1910 C   0  0  0  0  0  0  0  0  0  0  0  0
    3.9750   -0.3696   -1.4090 C   0  0  0  0  0  0  0  0  0  0  0  0
    4.7926    1.4139   -0.0222 C   0  0  0  0  0  0  0  0  0  0  0  0
   -4.1870    0.8948   -0.3580 C   0  0  0  0  0  0  0  0  0  0  0  0
   -2.9277    2.9095    0.0048 C   0  0  0  0  0  0  0  0  0  0  0  0
    0.3617   -2.2612    0.9071 C   0  0  0  0  0  0  0  0  0  0  0  0
   -4.1327    2.2824   -0.2875 C   0  0  0  0  0  0  0  0  0  0  0  0
   -2.0537   -3.5195    0.3339 C   0  0  0  0  0  0  0  0  0  0  0  0
   -0.5309    2.9665    0.4238 C   0  0  0  0  0  0  0  0  0  0  0  0
    4.5809   -1.5762   -0.7102 C   0  0  0  0  0  0  0  0  0  0  0  0
    4.5832    2.0326    1.3508 C   0  0  0  0  0  0  0  0  0  0  0  0
    0.2422   -3.6498    1.0324 C   0  0  0  0  0  0  0  0  0  0  0  0
   -0.9621   -4.2786    0.7405 C   0  0  0  0  0  0  0  0  0  0  0  0
   -5.3581    3.0937   -0.5385 C   0  0  0  0  0  0  0  0  0  0  0  0
    0.7637    1.3417    1.1848 H   0  0  0  0  0  0  0  0  0  0  0  0
    1.4193   -0.0862    0.8269 H   0  0  0  0  0  0  0  0  0  0  0  0
    0.5188    1.5348   -1.5729 H   0  0  0  0  0  0  0  0  0  0  0  0
    1.2226   -0.0121   -1.5546 H   0  0  0  0  0  0  0  0  0  0  0  0
    2.5310    2.4863   -0.4181 H   0  0  0  0  0  0  0  0  0  0  0  0
    2.8588    1.8518   -2.0159 H   0  0  0  0  0  0  0  0  0  0  0  0
    5.0646    2.1844   -0.7569 H   0  0  0  0  0  0  0  0  0  0  0  0
    5.6823    0.7775    0.0534 H   0  0  0  0  0  0  0  0  0  0  0  0
    4.6628    0.0190   -2.1728 H   0  0  0  0  0  0  0  0  0  0  0  0
    3.1117   -0.7377   -1.9744 H   0  0  0  0  0  0  0  0  0  0  0  0
   -5.1336    0.4062   -0.5751 H   0  0  0  0  0  0  0  0  0  0  0  0
   -2.9018    3.9963    0.0501 H   0  0  0  0  0  0  0  0  0  0  0  0
    1.3377   -1.8749    1.1724 H   0  0  0  0  0  0  0  0  0  0  0  0
   -2.9925   -4.0243    0.1229 H   0  0  0  0  0  0  0  0  0  0  0  0
   -0.1458    2.8832    1.4433 H   0  0  0  0  0  0  0  0  0  0  0  0
    0.2054    2.9721   -0.3662 H   0  0  0  0  0  0  0  0  0  0  0  0
   -0.8139    4.0323    0.4196 H   0  0  0  0  0  0  0  0  0  0  0  0
    3.8660   -2.0185   -0.0077 H   0  0  0  0  0  0  0  0  0  0  0  0
    5.4988   -1.3350   -0.1679 H   0  0  0  0  0  0  0  0  0  0  0  0
    4.3970    1.2586    2.1032 H   0  0  0  0  0  0  0  0  0  0  0  0
    3.7517    2.7428    1.3665 H   0  0  0  0  0  0  0  0  0  0  0  0
    1.0944   -4.2383    1.3610 H   0  0  0  0  0  0  0  0  0  0  0  0
   -1.0527   -5.3562    0.8382 H   0  0  0  0  0  0  0  0  0  0  0  0
   -5.8389    3.3512    0.4105 H   0  0  0  0  0  0  0  0  0  0  0  0
   -5.1135    4.0180   -1.0729 H   0  0  0  0  0  0  0  0  0  0  0  0
   -6.0791    2.5482   -1.1568 H   0  0  0  0  0  0  0  0  0  0  0  0
    5.6058    3.1126    2.6023 H   0  0  0  0  0  0  0  0  0  0  0  0
    5.2752   -3.3203   -1.2153 H   0  0  0  0  0  0  0  0  0  0  0  0
  1 14  2  0  0  0  0
  2 23  1  0  0  0  0
  2 55  1  0  0  0  0
  3 24  1  0  0  0  0
  3 54  1  0  0  0  0
  4  6  1  0  0  0  0
  4  8  1  0  0  0  0
  4 10  1  0  0  0  0
  5  9  1  0  0  0  0
  5 15  1  0  0  0  0
  5 16  1  0  0  0  0
  6  7  1  0  0  0  0
  6 28  1  0  0  0  0
  6 29  1  0  0  0  0
  7  9  1  0  0  0  0
  7 30  1  0  0  0  0
  7 31  1  0  0  0  0
  8 11  1  0  0  0  0
  8 13  2  0  0  0  0
  9 32  1  0  0  0  0
  9 33  1  0  0  0  0
 10 12  1  0  0  0  0
 10 19  2  0  0  0  0
 11 14  1  0  0  0  0
 11 17  2  0  0  0  0
 12 14  1  0  0  0  0
 12 21  2  0  0  0  0
 13 18  1  0  0  0  0
 13 22  1  0  0  0  0
 15 23  1  0  0  0  0
 15 36  1  0  0  0  0
 15 37  1  0  0  0  0
 16 24  1  0  0  0  0
 16 34  1  0  0  0  0
 16 35  1  0  0  0  0
 17 20  1  0  0  0  0
 17 38  1  0  0  0  0
 18 20  2  0  0  0  0
 18 39  1  0  0  0  0
 19 25  1  0  0  0  0
 19 40  1  0  0  0  0
 20 27  1  0  0  0  0
 21 26  1  0  0  0  0
 21 41  1  0  0  0  0
 22 42  1  0  0  0  0
 22 43  1  0  0  0  0
 22 44  1  0  0  0  0
 23 45  1  0  0  0  0
 23 46  1  0  0  0  0
 24 47  1  0  0  0  0
 24 48  1  0  0  0  0
 25 26  2  0  0  0  0
 25 49  1  0  0  0  0
 26 50  1  0  0  0  0
 27 51  1  0  0  0  0
 27 52  1  0  0  0  0
 27 53  1  0  0  0  0
M  END
> <PUBCHEM_COMPOUND_CID>
137653396

> <PUBCHEM_CONFORMER_RMSD>
1

> <PUBCHEM_CONFORMER_DIVERSEORDER>
1
10
9
11
3
4
15
12
6
13
14
2
7
8
5

> <PUBCHEM_MMFF94_PARTIAL_CHARGES>
34
1 -0.57
10 0.1
11 0.09
12 0.09
13 -0.14
14 0.4
15 0.27
16 0.27
17 -0.15
18 -0.15
19 -0.15
2 -0.68
20 -0.14
21 -0.15
22 0.14
23 0.28
24 0.28
25 -0.15
26 -0.15
27 0.14
3 -0.68
38 0.15
39 0.15
4 -0.57
40 0.15
41 0.15
49 0.15
5 -0.81
50 0.15
54 0.4
55 0.4
6 0.37
8 0.1
9 0.27

> <PUBCHEM_EFFECTIVE_ROTOR_COUNT>
8

> <PUBCHEM_PHARMACOPHORE_FEATURES>
10
1 1 acceptor
1 2 acceptor
1 2 donor
1 3 acceptor
1 3 donor
1 4 cation
1 5 cation
6 10 12 19 21 25 26 rings
6 4 8 10 11 12 14 rings
6 8 11 13 17 18 20 rings

> <PUBCHEM_HEAVY_ATOM_COUNT>
27

> <PUBCHEM_ATOM_DEF_STEREO_COUNT>
0

> <PUBCHEM_ATOM_UDEF_STEREO_COUNT>
0

> <PUBCHEM_BOND_DEF_STEREO_COUNT>
0

> <PUBCHEM_BOND_UDEF_STEREO_COUNT>
0

> <PUBCHEM_ISOTOPIC_ATOM_COUNT>
0

> <PUBCHEM_COMPONENT_COUNT>
1

> <PUBCHEM_CACTVS_TAUTO_COUNT>
-1

> <PUBCHEM_CONFORMER_ID>
08346C9400000001

> <PUBCHEM_MMFF94_ENERGY>
104.168

> <PUBCHEM_FEATURE_SELFOVERLAP>
50.79

> <PUBCHEM_SHAPE_FINGERPRINT>
10319926 262 18268412690491679720
10411042 1 17543909465522555715
1100329 8 18192710033953670739
12422481 6 17169532031164132436
12553582 1 17687769524071978330
12788726 201 17754465873663964610
13140716 1 18263637365051799451
13583140 156 17917149519847397628
138480 1 17326893976602175355
14178342 30 18262514935604794290
14790565 3 18124599674370688233
15927050 60 18339079277697788399
17913733 40 18265915570445928617
19591789 44 18336557113723724923
21033648 29 18408608054304196392
21859007 373 17825370900539035292
23557571 272 18270399528834471528
23559900 14 18341618114259927116
3178227 256 18117855515381169027
5283173 99 18411981394785542176
5309563 4 16894845825848697706
59755656 215 18045788883851010669
6138700 20 17975705987285830910
9709674 26 18340777034834706862
9981440 41 18333447634489254225

> <PUBCHEM_SHAPE_MULTIPOLES>
528.08
10.72
5.31
1.17
9.42
3.74
0
-7.71
1.6
-2.16
-1.4
1.73
-0.04
2.21

> <PUBCHEM_SHAPE_SELFOVERLAP>
1120.401

> <PUBCHEM_SHAPE_VOLUME>
296

> <PUBCHEM_COORDINATE_TYPE>
2
5
10

$$$$