56924700
  -OEChem-03242010103D

 59 62  0     0  0  0  0  0  0999 V2000
   -0.2944   -0.2904    0.7928 O   0  0  0  0  0  0  0  0  0  0  0  0
    4.1712    1.3074   -0.2136 O   0  0  0  0  0  0  0  0  0  0  0  0
   -7.5311    0.9534    0.6589 O   0  0  0  0  0  0  0  0  0  0  0  0
   -6.0603    2.6971   -0.9290 O   0  0  0  0  0  0  0  0  0  0  0  0
   -0.9130   -3.5925   -0.3686 O   0  0  0  0  0  0  0  0  0  0  0  0
    3.3221   -1.1008   -0.9079 O   0  0  0  0  0  0  0  0  0  0  0  0
   -2.2426   -2.0579    0.7780 N   0  0  0  0  0  0  0  0  0  0  0  0
   -4.3827   -2.6724   -0.2975 C   0  0  0  0  0  0  0  0  0  0  0  0
   -3.4377   -2.8640    0.8863 C   0  0  0  0  0  0  0  0  0  0  0  0
   -4.8334   -1.2421   -0.4651 C   0  0  0  0  0  0  0  0  0  0  0  0
    1.9569    0.4549    0.2612 C   0  0  0  0  0  0  0  0  0  0  0  0
    0.6956    0.6602    0.8219 C   0  0  0  0  0  0  0  0  0  0  0  0
    2.9271    1.4580    0.3199 C   0  0  0  0  0  0  0  0  0  0  0  0
   -0.0138   -1.4928    0.1790 C   0  0  0  0  0  0  0  0  0  0  0  0
   -5.9875   -0.7948    0.1780 C   0  0  0  0  0  0  0  0  0  0  0  0
   -4.0951   -0.3669   -1.2618 C   0  0  0  0  0  0  0  0  0  0  0  0
   -1.0828   -2.4928    0.1592 C   0  0  0  0  0  0  0  0  0  0  0  0
    2.2459   -0.8338   -0.3912 C   0  0  0  0  0  0  0  0  0  0  0  0
   -6.4033    0.5277    0.0245 C   0  0  0  0  0  0  0  0  0  0  0  0
    1.1488   -1.8228   -0.3966 C   0  0  0  0  0  0  0  0  0  0  0  0
    0.3982    1.8724    1.4451 C   0  0  0  0  0  0  0  0  0  0  0  0
   -5.6650    1.4030   -0.7721 C   0  0  0  0  0  0  0  0  0  0  0  0
   -4.5109    0.9557   -1.4153 C   0  0  0  0  0  0  0  0  0  0  0  0
    2.6263    2.6693    0.9440 C   0  0  0  0  0  0  0  0  0  0  0  0
    1.3651    2.8762    1.5052 C   0  0  0  0  0  0  0  0  0  0  0  0
    5.2775    1.4193    0.6801 C   0  0  0  0  0  0  0  0  0  0  0  0
    6.4116    0.5840    0.1628 C   0  0  0  0  0  0  0  0  0  0  0  0
    6.5279   -0.7510    0.5495 C   0  0  0  0  0  0  0  0  0  0  0  0
    7.3497    1.1430   -0.7051 C   0  0  0  0  0  0  0  0  0  0  0  0
    7.5824   -1.5273    0.0685 C   0  0  0  0  0  0  0  0  0  0  0  0
    8.4041    0.3669   -1.1861 C   0  0  0  0  0  0  0  0  0  0  0  0
    8.5205   -0.9682   -0.7993 C   0  0  0  0  0  0  0  0  0  0  0  0
   -8.2278   -0.0042    1.4541 C   0  0  0  0  0  0  0  0  0  0  0  0
   -5.2496    3.5260   -1.7600 C   0  0  0  0  0  0  0  0  0  0  0  0
   -3.8940   -3.0044   -1.2229 H   0  0  0  0  0  0  0  0  0  0  0  0
   -5.2583   -3.3221   -0.1748 H   0  0  0  0  0  0  0  0  0  0  0  0
   -3.9294   -2.5804    1.8234 H   0  0  0  0  0  0  0  0  0  0  0  0
   -3.1499   -3.9183    0.9609 H   0  0  0  0  0  0  0  0  0  0  0  0
   -2.2706   -1.1247    1.1795 H   0  0  0  0  0  0  0  0  0  0  0  0
   -6.5179   -1.5198    0.7863 H   0  0  0  0  0  0  0  0  0  0  0  0
   -3.1952   -0.7034   -1.7700 H   0  0  0  0  0  0  0  0  0  0  0  0
    1.3456   -2.7761   -0.8729 H   0  0  0  0  0  0  0  0  0  0  0  0
   -0.5813    2.0421    1.8838 H   0  0  0  0  0  0  0  0  0  0  0  0
   -3.8883    1.5782   -2.0485 H   0  0  0  0  0  0  0  0  0  0  0  0
    3.3598    3.4697    0.9931 H   0  0  0  0  0  0  0  0  0  0  0  0
    1.1351    3.8219    1.9875 H   0  0  0  0  0  0  0  0  0  0  0  0
    5.0078    1.0885    1.6924 H   0  0  0  0  0  0  0  0  0  0  0  0
    5.5830    2.4705    0.7485 H   0  0  0  0  0  0  0  0  0  0  0  0
    5.8016   -1.1984    1.2229 H   0  0  0  0  0  0  0  0  0  0  0  0
    7.2686    2.1813   -1.0154 H   0  0  0  0  0  0  0  0  0  0  0  0
    7.6726   -2.5670    0.3690 H   0  0  0  0  0  0  0  0  0  0  0  0
    9.1342    0.8019   -1.8623 H   0  0  0  0  0  0  0  0  0  0  0  0
    9.3414   -1.5726   -1.1741 H   0  0  0  0  0  0  0  0  0  0  0  0
   -9.0978    0.5048    1.8820 H   0  0  0  0  0  0  0  0  0  0  0  0
   -7.6179   -0.3510    2.2953 H   0  0  0  0  0  0  0  0  0  0  0  0
   -8.6113   -0.8312    0.8468 H   0  0  0  0  0  0  0  0  0  0  0  0
   -4.2423    3.6487   -1.3476 H   0  0  0  0  0  0  0  0  0  0  0  0
   -5.2359    3.1691   -2.7955 H   0  0  0  0  0  0  0  0  0  0  0  0
   -5.7109    4.5191   -1.7724 H   0  0  0  0  0  0  0  0  0  0  0  0
  1 12  1  0  0  0  0
  1 14  1  0  0  0  0
  2 13  1  0  0  0  0
  2 26  1  0  0  0  0
  3 19  1  0  0  0  0
  3 33  1  0  0  0  0
  4 22  1  0  0  0  0
  4 34  1  0  0  0  0
  5 17  2  0  0  0  0
  6 18  2  0  0  0  0
  7  9  1  0  0  0  0
  7 17  1  0  0  0  0
  7 39  1  0  0  0  0
  8  9  1  0  0  0  0
  8 10  1  0  0  0  0
  8 35  1  0  0  0  0
  8 36  1  0  0  0  0
  9 37  1  0  0  0  0
  9 38  1  0  0  0  0
 10 15  2  0  0  0  0
 10 16  1  0  0  0  0
 11 12  2  0  0  0  0
 11 13  1  0  0  0  0
 11 18  1  0  0  0  0
 12 21  1  0  0  0  0
 13 24  2  0  0  0  0
 14 17  1  0  0  0  0
 14 20  2  0  0  0  0
 15 19  1  0  0  0  0
 15 40  1  0  0  0  0
 16 23  2  0  0  0  0
 16 41  1  0  0  0  0
 18 20  1  0  0  0  0
 19 22  2  0  0  0  0
 20 42  1  0  0  0  0
 21 25  2  0  0  0  0
 21 43  1  0  0  0  0
 22 23  1  0  0  0  0
 23 44  1  0  0  0  0
 24 25  1  0  0  0  0
 24 45  1  0  0  0  0
 25 46  1  0  0  0  0
 26 27  1  0  0  0  0
 26 47  1  0  0  0  0
 26 48  1  0  0  0  0
 27 28  2  0  0  0  0
 27 29  1  0  0  0  0
 28 30  1  0  0  0  0
 28 49  1  0  0  0  0
 29 31  2  0  0  0  0
 29 50  1  0  0  0  0
 30 32  2  0  0  0  0
 30 51  1  0  0  0  0
 31 32  1  0  0  0  0
 31 52  1  0  0  0  0
 32 53  1  0  0  0  0
 33 54  1  0  0  0  0
 33 55  1  0  0  0  0
 33 56  1  0  0  0  0
 34 57  1  0  0  0  0
 34 58  1  0  0  0  0
 34 59  1  0  0  0  0
M  END
> <PUBCHEM_COMPOUND_CID>
56924700

> <PUBCHEM_CONFORMER_RMSD>
1.2

> <PUBCHEM_CONFORMER_DIVERSEORDER>
3
63
121
54
44
85
1
109
66
130
119
28
136
68
74
77
108
93
40
65
58
113
61
60
24
91
106
19
129
105
82
92
42
142
114
125
30
134
122
53
55
81
126
84
2
52
26
87
62
88
73
102
118
72
140
94
4
8
95
141
31
35
98
115
50
97
135
43
86
101
83
137
110
75
120
69
59
133
10
76
100
48
138
127
20
80
90
36
96
99
132
116
64
29
9
78
5
111
112
56
38
57
15
16
139
21
128
124
79
89
25
17
13
37
23
107
123
104
6
131
22
39
46
34
117
71
11
51
49
27
7
33
103
67
32
45
47
41
70
18
14
12

> <PUBCHEM_MMFF94_PARTIAL_CHARGES>
47
1 -0.16
10 -0.14
11 0.09
12 0.08
13 0.08
14 0.09
15 -0.15
16 -0.15
17 0.62
18 0.47
19 0.08
2 -0.36
20 -0.14
21 -0.15
22 0.08
23 -0.15
24 -0.15
25 -0.15
26 0.42
27 -0.14
28 -0.15
29 -0.15
3 -0.36
30 -0.15
31 -0.15
32 -0.15
33 0.28
34 0.28
39 0.37
4 -0.36
40 0.15
41 0.15
42 0.15
43 0.15
44 0.15
45 0.15
46 0.15
49 0.15
5 -0.57
50 0.15
51 0.15
52 0.15
53 0.15
6 -0.57
7 -0.73
8 0.14
9 0.3

> <PUBCHEM_EFFECTIVE_ROTOR_COUNT>
10

> <PUBCHEM_PHARMACOPHORE_FEATURES>
11
1 1 acceptor
1 2 acceptor
1 3 acceptor
1 4 acceptor
1 5 acceptor
1 6 acceptor
1 7 donor
6 1 11 12 14 18 20 rings
6 10 15 16 19 22 23 rings
6 11 12 13 21 24 25 rings
6 27 28 29 30 31 32 rings

> <PUBCHEM_HEAVY_ATOM_COUNT>
34

> <PUBCHEM_ATOM_DEF_STEREO_COUNT>
0

> <PUBCHEM_ATOM_UDEF_STEREO_COUNT>
0

> <PUBCHEM_BOND_DEF_STEREO_COUNT>
0

> <PUBCHEM_BOND_UDEF_STEREO_COUNT>
0

> <PUBCHEM_ISOTOPIC_ATOM_COUNT>
0

> <PUBCHEM_COMPONENT_COUNT>
1

> <PUBCHEM_CACTVS_TAUTO_COUNT>
2

> <PUBCHEM_CONFORMER_ID>
03649A1C00000003

> <PUBCHEM_MMFF94_ENERGY>
114.9265

> <PUBCHEM_FEATURE_SELFOVERLAP>
55.867

> <PUBCHEM_SHAPE_FINGERPRINT>
10165383 225 18411421701208251971
10483366 6 18343021081852608336
10670039 82 18259978284891307701
11135926 11 17917712366584096591
11408170 108 16271665399184608630
12373685 5 13110421017372113559
12664476 115 18411136927491215229
12857493 111 18131353003748712808
14279260 333 18059857207884125484
15183329 4 18334569161855885090
15230672 131 18335132077560766810
15604295 49 18192992854252703372
15975801 100 17458894930094250549
16087824 20 18343306937575070313
16628084 112 18263919935292967778
16992727 255 18335422318507550500
18608769 82 18335706079103025859
19304152 47 17240479162161897949
19841028 212 18187920631410270370
21223535 225 17203335468699899465
21279426 13 18341607157497349760
21365058 27 15502372339812823690
21458453 9 8646764495733762830
21859007 373 18268696355210848272
21927370 108 17971478640635622563
23559900 14 18129376184804180568
335352 9 18342459270118339102
4098825 35 18186803612587524438
4144715 1 17899700351750036602
4149490 64 13757494726300306647
484989 97 18341613741756522416
6703917 75 17095532789822613739
9982175 41 15647877238326209471

> <PUBCHEM_SHAPE_MULTIPOLES>
659.51
25.02
3.57
1.31
14.24
0.1
-0.06
3.55
-4.58
-3.6
-0.07
-0.94
0.74
2.34

> <PUBCHEM_SHAPE_SELFOVERLAP>
1434.13

> <PUBCHEM_SHAPE_VOLUME>
357.3

> <PUBCHEM_COORDINATE_TYPE>
2
5
10

$$$$