127042307
  -OEChem-03242010103D

 58 61  0     0  0  0  0  0  0999 V2000
   -8.1018    1.0420    0.8965 S   0  0  0  0  0  0  0  0  0  0  0  0
    2.4755    0.3211   -0.0915 O   0  0  0  0  0  0  0  0  0  0  0  0
    5.1299   -2.6943    0.5593 O   0  0  0  0  0  0  0  0  0  0  0  0
    7.1247   -0.9576    0.4028 O   0  0  0  0  0  0  0  0  0  0  0  0
    5.9261    3.5665   -0.4050 O   0  0  0  0  0  0  0  0  0  0  0  0
   -8.5772    2.1762    0.1161 O   0  0  0  0  0  0  0  0  0  0  0  0
   -9.0000   -0.0687    1.1781 O   0  0  0  0  0  0  0  0  0  0  0  0
   -2.0292   -1.3127   -0.7717 N   0  0  0  0  0  0  0  0  0  0  0  0
    0.6989   -1.1637    0.0401 N   0  0  0  0  0  0  0  0  0  0  0  0
   -1.3761   -0.0101   -0.5775 C   0  0  0  0  0  0  0  0  0  0  0  0
   -1.0536   -2.3087   -1.2384 C   0  0  0  0  0  0  0  0  0  0  0  0
    0.0904   -2.4647   -0.2346 C   0  0  0  0  0  0  0  0  0  0  0  0
   -0.2391   -0.1157    0.4408 C   0  0  0  0  0  0  0  0  0  0  0  0
   -3.1371   -1.1959   -1.7190 C   0  0  0  0  0  0  0  0  0  0  0  0
    2.0511   -0.9897    0.0947 C   0  0  0  0  0  0  0  0  0  0  0  0
   -4.3749   -0.6383   -1.0680 C   0  0  0  0  0  0  0  0  0  0  0  0
    2.8999   -2.0082    0.3116 C   0  0  0  0  0  0  0  0  0  0  0  0
   -5.1567   -1.4501   -0.2461 C   0  0  0  0  0  0  0  0  0  0  0  0
   -4.7398    0.6902   -1.2865 C   0  0  0  0  0  0  0  0  0  0  0  0
    3.8183    0.5981   -0.0536 C   0  0  0  0  0  0  0  0  0  0  0  0
    4.7872   -0.3786    0.1645 C   0  0  0  0  0  0  0  0  0  0  0  0
    4.3549   -1.7688    0.3622 C   0  0  0  0  0  0  0  0  0  0  0  0
   -6.6683    0.3949    0.1384 C   0  0  0  0  0  0  0  0  0  0  0  0
   -6.3033   -0.9336    0.3571 C   0  0  0  0  0  0  0  0  0  0  0  0
   -5.8865    1.2068   -0.6834 C   0  0  0  0  0  0  0  0  0  0  0  0
    6.1416   -0.0384    0.1931 C   0  0  0  0  0  0  0  0  0  0  0  0
    4.1998    1.9264   -0.2453 C   0  0  0  0  0  0  0  0  0  0  0  0
    5.5515    2.2713   -0.2178 C   0  0  0  0  0  0  0  0  0  0  0  0
    6.5202    1.2909    0.0012 C   0  0  0  0  0  0  0  0  0  0  0  0
   -7.5271    1.6879    2.4509 C   0  0  0  0  0  0  0  0  0  0  0  0
    7.5150   -1.1922    1.7546 C   0  0  0  0  0  0  0  0  0  0  0  0
    4.8856    4.5179   -0.6237 C   0  0  0  0  0  0  0  0  0  0  0  0
   -2.0884    0.7301   -0.1971 H   0  0  0  0  0  0  0  0  0  0  0  0
   -1.5394   -3.2851   -1.3550 H   0  0  0  0  0  0  0  0  0  0  0  0
   -0.6496   -2.0219   -2.2188 H   0  0  0  0  0  0  0  0  0  0  0  0
   -0.9795    0.3720   -1.5279 H   0  0  0  0  0  0  0  0  0  0  0  0
    0.2395    0.8659    0.5336 H   0  0  0  0  0  0  0  0  0  0  0  0
   -0.6433   -0.3607    1.4315 H   0  0  0  0  0  0  0  0  0  0  0  0
   -0.2779   -2.9002    0.7027 H   0  0  0  0  0  0  0  0  0  0  0  0
    0.7957   -3.1789   -0.6739 H   0  0  0  0  0  0  0  0  0  0  0  0
   -3.4133   -2.1862   -2.1084 H   0  0  0  0  0  0  0  0  0  0  0  0
   -2.8582   -0.6103   -2.6058 H   0  0  0  0  0  0  0  0  0  0  0  0
    2.5838   -3.0301    0.4855 H   0  0  0  0  0  0  0  0  0  0  0  0
   -4.8816   -2.4861   -0.0666 H   0  0  0  0  0  0  0  0  0  0  0  0
   -4.1386    1.3340   -1.9231 H   0  0  0  0  0  0  0  0  0  0  0  0
   -6.8928   -1.5819    0.9994 H   0  0  0  0  0  0  0  0  0  0  0  0
   -6.1484    2.2459   -0.8616 H   0  0  0  0  0  0  0  0  0  0  0  0
    3.4027    2.6437   -0.4108 H   0  0  0  0  0  0  0  0  0  0  0  0
    7.5721    1.5661    0.0207 H   0  0  0  0  0  0  0  0  0  0  0  0
   -8.3846    2.1073    2.9814 H   0  0  0  0  0  0  0  0  0  0  0  0
   -7.0906    0.8745    3.0337 H   0  0  0  0  0  0  0  0  0  0  0  0
   -6.7888    2.4690    2.2601 H   0  0  0  0  0  0  0  0  0  0  0  0
    8.1508   -2.0814    1.7785 H   0  0  0  0  0  0  0  0  0  0  0  0
    6.6468   -1.3639    2.3991 H   0  0  0  0  0  0  0  0  0  0  0  0
    8.0909   -0.3401    2.1291 H   0  0  0  0  0  0  0  0  0  0  0  0
    5.3632    5.4947   -0.7529 H   0  0  0  0  0  0  0  0  0  0  0  0
    4.2244    4.5985    0.2458 H   0  0  0  0  0  0  0  0  0  0  0  0
    4.3350    4.3074   -1.5469 H   0  0  0  0  0  0  0  0  0  0  0  0
  1  6  2  0  0  0  0
  1  7  2  0  0  0  0
  1 23  1  0  0  0  0
  1 30  1  0  0  0  0
  2 15  1  0  0  0  0
  2 20  1  0  0  0  0
  3 22  2  0  0  0  0
  4 26  1  0  0  0  0
  4 31  1  0  0  0  0
  5 28  1  0  0  0  0
  5 32  1  0  0  0  0
  8 10  1  0  0  0  0
  8 11  1  0  0  0  0
  8 14  1  0  0  0  0
  9 12  1  0  0  0  0
  9 13  1  0  0  0  0
  9 15  1  0  0  0  0
 10 13  1  0  0  0  0
 10 33  1  0  0  0  0
 10 36  1  0  0  0  0
 11 12  1  0  0  0  0
 11 34  1  0  0  0  0
 11 35  1  0  0  0  0
 12 39  1  0  0  0  0
 12 40  1  0  0  0  0
 13 37  1  0  0  0  0
 13 38  1  0  0  0  0
 14 16  1  0  0  0  0
 14 41  1  0  0  0  0
 14 42  1  0  0  0  0
 15 17  2  0  0  0  0
 16 18  2  0  0  0  0
 16 19  1  0  0  0  0
 17 22  1  0  0  0  0
 17 43  1  0  0  0  0
 18 24  1  0  0  0  0
 18 44  1  0  0  0  0
 19 25  2  0  0  0  0
 19 45  1  0  0  0  0
 20 21  2  0  0  0  0
 20 27  1  0  0  0  0
 21 22  1  0  0  0  0
 21 26  1  0  0  0  0
 23 24  2  0  0  0  0
 23 25  1  0  0  0  0
 24 46  1  0  0  0  0
 25 47  1  0  0  0  0
 26 29  2  0  0  0  0
 27 28  2  0  0  0  0
 27 48  1  0  0  0  0
 28 29  1  0  0  0  0
 29 49  1  0  0  0  0
 30 50  1  0  0  0  0
 30 51  1  0  0  0  0
 30 52  1  0  0  0  0
 31 53  1  0  0  0  0
 31 54  1  0  0  0  0
 31 55  1  0  0  0  0
 32 56  1  0  0  0  0
 32 57  1  0  0  0  0
 32 58  1  0  0  0  0
M  END
> <PUBCHEM_COMPOUND_CID>
127042307

> <PUBCHEM_CONFORMER_RMSD>
1

> <PUBCHEM_CONFORMER_DIVERSEORDER>
1
16
42
34
35
49
32
33
23
3
31
13
12
24
25
47
43
27
36
20
40
19
29
30
39
38
6
11
46
10
18
21
2
26
48
22
45
17
41
5
15
37
44
14
7
28
8
9
50
4

> <PUBCHEM_MMFF94_PARTIAL_CHARGES>
39
1 1.2
10 0.27
11 0.27
12 0.37
13 0.37
14 0.41
15 0.18
16 -0.14
17 -0.14
18 -0.15
19 -0.15
2 -0.16
20 0.08
21 0.09
22 0.47
23 -0.01
24 -0.15
25 -0.15
26 0.08
27 -0.15
28 0.08
29 -0.15
3 -0.57
30 0.11
31 0.28
32 0.28
4 -0.36
43 0.15
44 0.15
45 0.15
46 0.15
47 0.15
48 0.15
49 0.15
5 -0.36
6 -0.65
7 -0.65
8 -0.81
9 -0.84

> <PUBCHEM_EFFECTIVE_ROTOR_COUNT>
7.2

> <PUBCHEM_PHARMACOPHORE_FEATURES>
12
1 2 acceptor
1 3 acceptor
1 4 acceptor
1 5 acceptor
1 6 acceptor
1 7 acceptor
1 8 cation
1 9 cation
6 16 18 19 23 24 25 rings
6 2 15 17 20 21 22 rings
6 20 21 26 27 28 29 rings
6 8 9 10 11 12 13 rings

> <PUBCHEM_HEAVY_ATOM_COUNT>
32

> <PUBCHEM_ATOM_DEF_STEREO_COUNT>
0

> <PUBCHEM_ATOM_UDEF_STEREO_COUNT>
0

> <PUBCHEM_BOND_DEF_STEREO_COUNT>
0

> <PUBCHEM_BOND_UDEF_STEREO_COUNT>
0

> <PUBCHEM_ISOTOPIC_ATOM_COUNT>
0

> <PUBCHEM_COMPONENT_COUNT>
1

> <PUBCHEM_CACTVS_TAUTO_COUNT>
1

> <PUBCHEM_CONFORMER_ID>
0792830300000001

> <PUBCHEM_MMFF94_ENERGY>
103.8389

> <PUBCHEM_FEATURE_SELFOVERLAP>
60.957

> <PUBCHEM_SHAPE_FINGERPRINT>
10 15 18335141969481839727
10066227 49 9727639397620299245
10411042 1 18048027482022437258
10906281 52 18059863869816570039
10951579 204 14548198526819649064
11456790 92 17895745211251985232
11475781 23 15913328009271002182
1200032 147 18042405893353421888
12788726 201 17632582642865588856
13782708 43 12252167576815820764
14394314 77 18339645637497228821
14747281 78 18114758113831636830
14849402 71 18340208604746264817
14933364 13 18335137600661349367
15064981 194 18194698183426572134
15183329 4 13110964206661093063
15276724 80 18410007715721814013
15357212 105 17533514575678029604
15419008 145 18116136797954357392
15461852 350 17274814771751503119
1577012 14 18342453780917916142
15840311 113 18409170996094275917
16989713 51 16629668700592877327
19302320 297 18408886239404263716
20691028 202 18271522104294000657
21136928 87 13647769341122035274
22956985 138 13336389305897159344
23081809 10 18059845191003702455
23522609 53 18202012053144207625
23559900 14 10663814200101441095
2747138 104 16587744239787689261
3178227 256 18261107440220246082
3711267 37 18060425698889217489
397830 11 17967822699288498563
4073 2 18041279979654465755
4169191 19 18342739590608794189
44555599 121 18343306963561229921
474113 269 14045474289505063676
50009960 94 11958919000185329692
5104073 3 17896588661056086586
5718773 13 8646498405504122293
58083652 198 18260813913601849445
5911458 16 18202571670208334305
6328613 192 18272370889000793593
68570916 9 18337106881916684375
9953998 17 17676491636517794379

> <PUBCHEM_SHAPE_MULTIPOLES>
617.22
27.64
3.4
1.31
29.59
3.04
-0.38
13.67
-10.29
-5.91
0.52
1.96
0.09
-3.47

> <PUBCHEM_SHAPE_SELFOVERLAP>
1318.067

> <PUBCHEM_SHAPE_VOLUME>
345.6

> <PUBCHEM_COORDINATE_TYPE>
2
5
10

$$$$