127042943
  -OEChem-03242010103D

 51 54  0     0  0  0  0  0  0999 V2000
    2.1519    0.6011   -0.0606 O   0  0  0  0  0  0  0  0  0  0  0  0
    4.0863   -2.9790   -0.1199 O   0  0  0  0  0  0  0  0  0  0  0  0
    6.4120   -1.7099   -0.1328 O   0  0  0  0  0  0  0  0  0  0  0  0
    6.2276    3.0356   -0.0850 O   0  0  0  0  0  0  0  0  0  0  0  0
   -8.9481    0.3661    1.1599 O   0  5  0  0  0  0  0  0  0  0  0  0
   -8.9659    0.4614   -1.0332 O   0  0  0  0  0  0  0  0  0  0  0  0
    0.0928   -0.4681   -0.0462 N   0  0  0  0  0  0  0  0  0  0  0  0
   -2.7770   -0.1871   -0.0115 N   0  0  0  0  0  0  0  0  0  0  0  0
   -8.3520    0.3550    0.0558 N   0  3  0  0  0  0  0  0  0  0  0  0
   -0.7782   -1.4633   -0.6709 C   0  0  0  0  0  0  0  0  0  0  0  0
   -0.5536    0.6754    0.5974 C   0  0  0  0  0  0  0  0  0  0  0  0
   -1.9553    0.3154    1.0915 C   0  0  0  0  0  0  0  0  0  0  0  0
   -2.0948   -0.8372   -1.1325 C   0  0  0  0  0  0  0  0  0  0  0  0
    1.4521   -0.6002   -0.0640 C   0  0  0  0  0  0  0  0  0  0  0  0
   -4.1623   -0.0516    0.0052 C   0  0  0  0  0  0  0  0  0  0  0  0
    2.0589   -1.7988   -0.0834 C   0  0  0  0  0  0  0  0  0  0  0  0
   -4.8471   -0.0365    1.2203 C   0  0  0  0  0  0  0  0  0  0  0  0
   -4.8659    0.0683   -1.1933 C   0  0  0  0  0  0  0  0  0  0  0  0
    3.5231    0.5730   -0.0770 C   0  0  0  0  0  0  0  0  0  0  0  0
    4.2563   -0.6113   -0.0971 C   0  0  0  0  0  0  0  0  0  0  0  0
    3.5314   -1.8892   -0.1020 C   0  0  0  0  0  0  0  0  0  0  0  0
   -6.2352    0.0984    1.2370 C   0  0  0  0  0  0  0  0  0  0  0  0
   -6.2541    0.2029   -1.1767 C   0  0  0  0  0  0  0  0  0  0  0  0
    5.6526   -0.5793   -0.1130 C   0  0  0  0  0  0  0  0  0  0  0  0
   -6.9388    0.2179    0.0385 C   0  0  0  0  0  0  0  0  0  0  0  0
    4.1850    1.8013   -0.0727 C   0  0  0  0  0  0  0  0  0  0  0  0
    5.5796    1.8384   -0.0888 C   0  0  0  0  0  0  0  0  0  0  0  0
    6.3117    0.6505   -0.1086 C   0  0  0  0  0  0  0  0  0  0  0  0
    6.7880   -2.2603    1.1282 C   0  0  0  0  0  0  0  0  0  0  0  0
    5.4189    4.2110   -0.0643 C   0  0  0  0  0  0  0  0  0  0  0  0
   -0.6098    1.5037   -0.1200 H   0  0  0  0  0  0  0  0  0  0  0  0
    0.0365    1.0211    1.4553 H   0  0  0  0  0  0  0  0  0  0  0  0
   -0.2948   -1.9141   -1.5467 H   0  0  0  0  0  0  0  0  0  0  0  0
   -0.9815   -2.2663    0.0490 H   0  0  0  0  0  0  0  0  0  0  0  0
   -1.8920   -0.4491    1.8756 H   0  0  0  0  0  0  0  0  0  0  0  0
   -2.3975    1.2178    1.5312 H   0  0  0  0  0  0  0  0  0  0  0  0
   -1.9031   -0.0976   -1.9198 H   0  0  0  0  0  0  0  0  0  0  0  0
   -2.7142   -1.6355   -1.5595 H   0  0  0  0  0  0  0  0  0  0  0  0
    1.5146   -2.7367   -0.0743 H   0  0  0  0  0  0  0  0  0  0  0  0
   -4.3303   -0.1430    2.1702 H   0  0  0  0  0  0  0  0  0  0  0  0
   -4.3610    0.0754   -2.1555 H   0  0  0  0  0  0  0  0  0  0  0  0
   -6.7358    0.1027    2.2020 H   0  0  0  0  0  0  0  0  0  0  0  0
   -6.7691    0.2971   -2.1294 H   0  0  0  0  0  0  0  0  0  0  0  0
    3.5631    2.6904   -0.0568 H   0  0  0  0  0  0  0  0  0  0  0  0
    7.3985    0.6863   -0.1218 H   0  0  0  0  0  0  0  0  0  0  0  0
    7.2093   -3.2546    0.9564 H   0  0  0  0  0  0  0  0  0  0  0  0
    5.9272   -2.3547    1.7978 H   0  0  0  0  0  0  0  0  0  0  0  0
    7.5530   -1.6323    1.5954 H   0  0  0  0  0  0  0  0  0  0  0  0
    6.0979    5.0701   -0.0642 H   0  0  0  0  0  0  0  0  0  0  0  0
    4.8240    4.2744    0.8531 H   0  0  0  0  0  0  0  0  0  0  0  0
    4.8025    4.2917   -0.9662 H   0  0  0  0  0  0  0  0  0  0  0  0
  1 14  1  0  0  0  0
  1 19  1  0  0  0  0
  2 21  2  0  0  0  0
  3 24  1  0  0  0  0
  3 29  1  0  0  0  0
  4 27  1  0  0  0  0
  4 30  1  0  0  0  0
  5  9  1  0  0  0  0
  6  9  2  0  0  0  0
  7 10  1  0  0  0  0
  7 11  1  0  0  0  0
  7 14  1  0  0  0  0
  8 12  1  0  0  0  0
  8 13  1  0  0  0  0
  8 15  1  0  0  0  0
  9 25  1  0  0  0  0
 10 13  1  0  0  0  0
 10 33  1  0  0  0  0
 10 34  1  0  0  0  0
 11 12  1  0  0  0  0
 11 31  1  0  0  0  0
 11 32  1  0  0  0  0
 12 35  1  0  0  0  0
 12 36  1  0  0  0  0
 13 37  1  0  0  0  0
 13 38  1  0  0  0  0
 14 16  2  0  0  0  0
 15 17  2  0  0  0  0
 15 18  1  0  0  0  0
 16 21  1  0  0  0  0
 16 39  1  0  0  0  0
 17 22  1  0  0  0  0
 17 40  1  0  0  0  0
 18 23  2  0  0  0  0
 18 41  1  0  0  0  0
 19 20  2  0  0  0  0
 19 26  1  0  0  0  0
 20 21  1  0  0  0  0
 20 24  1  0  0  0  0
 22 25  2  0  0  0  0
 22 42  1  0  0  0  0
 23 25  1  0  0  0  0
 23 43  1  0  0  0  0
 24 28  2  0  0  0  0
 26 27  2  0  0  0  0
 26 44  1  0  0  0  0
 27 28  1  0  0  0  0
 28 45  1  0  0  0  0
 29 46  1  0  0  0  0
 29 47  1  0  0  0  0
 29 48  1  0  0  0  0
 30 49  1  0  0  0  0
 30 50  1  0  0  0  0
 30 51  1  0  0  0  0
M  CHG  2   5  -1   9   1
M  END
> <PUBCHEM_COMPOUND_CID>
127042943

> <PUBCHEM_CONFORMER_RMSD>
0.8

> <PUBCHEM_CONFORMER_DIVERSEORDER>
1
3
16
8
5
14
10
13
11
7
6
15
9
4
12
2

> <PUBCHEM_MMFF94_PARTIAL_CHARGES>
37
1 -0.16
10 0.37
11 0.37
12 0.37
13 0.37
14 0.18
15 0.1
16 -0.14
17 -0.15
18 -0.15
19 0.08
2 -0.57
20 0.09
21 0.47
22 -0.15
23 -0.15
24 0.08
25 0.13
26 -0.15
27 0.08
28 -0.15
29 0.28
3 -0.36
30 0.28
39 0.15
4 -0.36
40 0.15
41 0.15
42 0.15
43 0.15
44 0.15
45 0.15
5 -0.52
6 -0.52
7 -0.84
8 -0.84
9 0.91

> <PUBCHEM_EFFECTIVE_ROTOR_COUNT>
6.2

> <PUBCHEM_PHARMACOPHORE_FEATURES>
13
1 1 acceptor
1 2 acceptor
1 3 acceptor
1 4 acceptor
1 5 acceptor
1 5 anion
1 6 acceptor
1 7 cation
1 8 cation
6 1 14 16 19 20 21 rings
6 15 17 18 22 23 25 rings
6 19 20 24 26 27 28 rings
6 7 8 10 11 12 13 rings

> <PUBCHEM_HEAVY_ATOM_COUNT>
30

> <PUBCHEM_ATOM_DEF_STEREO_COUNT>
0

> <PUBCHEM_ATOM_UDEF_STEREO_COUNT>
0

> <PUBCHEM_BOND_DEF_STEREO_COUNT>
0

> <PUBCHEM_BOND_UDEF_STEREO_COUNT>
0

> <PUBCHEM_ISOTOPIC_ATOM_COUNT>
0

> <PUBCHEM_COMPONENT_COUNT>
1

> <PUBCHEM_CACTVS_TAUTO_COUNT>
1

> <PUBCHEM_CONFORMER_ID>
0792857F00000001

> <PUBCHEM_MMFF94_ENERGY>
126.5247

> <PUBCHEM_FEATURE_SELFOVERLAP>
66.095

> <PUBCHEM_SHAPE_FINGERPRINT>
10 15 17821728372559372821
10162869 55 18271796930350178846
10299344 5 17989486316998156599
10411042 1 18050568440377482702
10638233 991 18201722863968468129
10835480 77 18335985362812894273
10906281 52 17632029601934813287
11135609 127 18270674389746344288
11181472 205 18058461919740527049
11315181 36 11743833674026054335
11374522 174 17682129012685685892
11719270 70 18272368650912070790
12089408 11 17846498132920457957
12236239 1 18059856172860349702
13533116 47 18201155464613570330
13617811 41 16056885731803208928
13878862 14 18338218449997643372
14170010 4 18186523210999450468
14251764 18 17703789211347180535
14294032 229 16055778460155584097
14429380 56 18411131450685070829
14849402 71 18272092747135664889
14856354 85 16917348152461614637
14933364 13 18335421270661695349
15131766 46 18121778593574212156
15183329 4 17060625512160315537
15276724 80 18341333314868181565
15301273 46 17385443207088695367
15419008 47 17458340828058237557
15419008 91 17603856828576455117
15483637 11 18193275183316119020
15510794 2 17676210181971617155
1577012 14 18201717396453507807
15840311 113 18410577300877000652
16120349 18 18411133654045491421
19301679 30 17975966567964415810
19427546 62 18337674217574988078
20157964 124 18410856568709778636
20554085 129 16443059508751569289
21033648 29 17386285510463245184
21150785 3 17847061099784794677
21267235 1 18340772529736149814
21344244 78 18200018540290129034
21521721 280 18409451388771103531
21792934 111 18342165640294750808
22224240 67 17967250914798462667
23081809 10 17775567554478666689
23522609 53 17631755823355063457
23523787 8 15625116407318972636
255183 451 17772201808539244358
3178227 256 18334008377436672634
335352 9 18412268320919803126
34797466 226 18343869891918092687
397830 11 17896612850084713123
4073 2 18261677077332226259
4149490 64 18334294279401260546
4325135 7 18060137622325537567
4340502 62 17676205775356562602
444735 82 18259708912536916557
44555599 121 18202009798175900393
445580 126 18341887537637598176
5104073 3 18263077868326210186
57527293 21 16589425501083929252
58083652 198 18410577271413915265
9962374 69 18340759356628945654

> <PUBCHEM_SHAPE_MULTIPOLES>
567.23
25.64
2.67
1.03
38.27
1.88
-0.07
6.11
-1.39
-9.37
0.02
1.62
-0.09
-0.74

> <PUBCHEM_SHAPE_SELFOVERLAP>
1238.072

> <PUBCHEM_SHAPE_VOLUME>
309.6

> <PUBCHEM_COORDINATE_TYPE>
2
5
10

$$$$