33
 OpenBabel03292022263D

152158  0  0  1  0  0  0  0  0999 V2000
    0.1764   -0.6387    1.3862 C   0  0  0  0  0  0  0  0  0  0  0  0
    1.6923   -0.4221    1.5314 C   0  0  0  0  0  0  0  0  0  0  0  0
    1.9085    0.7941    2.4396 C   0  0  0  0  0  0  0  0  0  0  0  0
    2.5747   -1.6993    1.6969 C   0  0  0  0  0  0  0  0  0  0  0  0
    3.3684   -2.2195    2.7466 C   0  0  0  0  0  0  0  0  0  0  0  0
    3.7677   -1.5910    4.0216 C   0  0  0  0  0  0  0  0  0  0  0  0
    3.6307   -2.2155    5.0682 O   0  0  0  0  0  0  0  0  0  0  0  0
    4.4414   -0.3701    4.0037 N   0  0  0  0  0  0  0  0  0  0  0  0
    4.9648    0.2040    5.2023 C   0  0  0  0  0  0  0  0  0  0  0  0
    6.1416    0.9564    5.1632 C   0  0  0  0  0  0  0  0  0  0  0  0
    6.7516    1.3704    6.3600 C   0  0  0  0  0  0  0  0  0  0  0  0
    6.1736    1.0735    7.5956 C   0  0  0  0  0  0  0  0  0  0  0  0
    4.9669    0.3907    7.6397 C   0  0  0  0  0  0  0  0  0  0  0  0
    4.3643   -0.0222    6.4512 C   0  0  0  0  0  0  0  0  0  0  0  0
    3.5851   -3.6511    2.4505 C   0  0  0  0  0  0  0  0  0  0  0  0
    4.2822   -4.7261    3.2100 C   0  0  0  0  0  0  0  0  0  0  0  0
    4.0779   -4.9403    4.5746 C   0  0  0  0  0  0  0  0  0  0  0  0
    4.6883   -6.0062    5.2472 C   0  0  0  0  0  0  0  0  0  0  0  0
    5.4377   -6.9459    4.5473 C   0  0  0  0  0  0  0  0  0  0  0  0
    5.6154   -6.7963    3.1781 C   0  0  0  0  0  0  0  0  0  0  0  0
    5.0794   -5.6785    2.5266 C   0  0  0  0  0  0  0  0  0  0  0  0
    2.8415   -3.9644    1.2986 C   0  0  0  0  0  0  0  0  0  0  0  0
    2.3189   -5.3760    0.8967 C   0  0  0  0  0  0  0  0  0  0  0  0
    2.2963   -6.5031    1.7532 C   0  0  0  0  0  0  0  0  0  0  0  0
    1.9799   -7.8210    1.3192 C   0  0  0  0  0  0  0  0  0  0  0  0
    1.4858   -8.0325    0.0530 C   0  0  0  0  0  0  0  0  0  0  0  0
    1.1907   -9.2543   -0.4028 F   0  0  0  0  0  0  0  0  0  0  0  0
    1.3378   -6.9584   -0.7656 C   0  0  0  0  0  0  0  0  0  0  0  0
    1.8150   -5.7066   -0.3462 C   0  0  0  0  0  0  0  0  0  0  0  0
    2.8103   -2.6477    0.6356 N   0  0  0  0  0  0  0  0  0  0  0  0
    2.4698   -2.4253   -0.9561 C   0  0  0  0  0  0  0  0  0  0  0  0
    3.3756   -1.5549   -2.8500 C   0  0  0  0  0  0  0  0  0  0  0  0
    2.7769   -1.3466   -4.5046 C   0  0  1  0  0  0  0  0  0  0  0  0
    1.3757   -1.2548   -4.7136 O   0  0  0  0  0  0  0  0  0  0  0  0
    3.4529   -0.0630   -5.0657 C   0  0  0  0  0  0  0  0  0  0  0  0
    3.1439    0.2844   -6.5232 C   0  0  1  0  0  0  0  0  0  0  0  0
    1.7600    0.6053   -6.6807 O   0  0  0  0  0  0  0  0  0  0  0  0
    3.9474    1.4940   -6.9978 C   0  0  0  0  0  0  0  0  0  0  0  0
    5.4273    1.2514   -6.9023 C   0  0  0  0  0  0  0  0  0  0  0  0
    6.1077    1.5896   -5.9451 O   0  0  0  0  0  0  0  0  0  0  0  0
    5.9341    0.5686   -7.9491 O   0  0  0  0  0  0  0  0  0  0  0  0
    2.7634    1.9425   -1.0939 C   0  0  0  0  0  0  0  0  0  0  0  0
    3.8075    0.8281   -0.9338 C   0  0  0  0  0  0  0  0  0  0  0  0
    4.6097    1.0499    0.3306 C   0  0  0  0  0  0  0  0  0  0  0  0
    3.2337   -0.6367   -1.1361 C   0  0  0  0  0  0  0  0  0  0  0  0
    1.6902   -1.0214   -2.0542 C   0  0  0  0  0  0  0  0  0  0  0  0
    0.4391   -0.2435   -2.1834 C   0  0  0  0  0  0  0  0  0  0  0  0
    0.3580    0.9215   -1.8260 O   0  0  0  0  0  0  0  0  0  0  0  0
   -0.6244   -0.9476   -2.7163 N   0  0  0  0  0  0  0  0  0  0  0  0
   -1.9601   -0.5300   -2.8793 C   0  0  0  0  0  0  0  0  0  0  0  0
   -2.3714    0.7914   -2.7238 C   0  0  0  0  0  0  0  0  0  0  0  0
   -3.6986    1.1494   -2.9592 C   0  0  0  0  0  0  0  0  0  0  0  0
   -4.6337    0.1832   -3.3201 C   0  0  0  0  0  0  0  0  0  0  0  0
   -4.2420   -1.1463   -3.4458 C   0  0  0  0  0  0  0  0  0  0  0  0
   -2.9071   -1.5003   -3.2383 C   0  0  0  0  0  0  0  0  0  0  0  0
    1.9145   -2.8605   -2.7763 C   0  0  0  0  0  0  0  0  0  0  0  0
    0.8393   -3.7369   -3.2742 C   0  0  0  0  0  0  0  0  0  0  0  0
    0.9323   -4.4086   -4.5018 C   0  0  0  0  0  0  0  0  0  0  0  0
    0.0787   -5.4902   -4.7745 C   0  0  0  0  0  0  0  0  0  0  0  0
   -0.9294   -5.8409   -3.8761 C   0  0  0  0  0  0  0  0  0  0  0  0
   -1.1062   -5.1021   -2.7113 C   0  0  0  0  0  0  0  0  0  0  0  0
   -0.2174   -4.0709   -2.4080 C   0  0  0  0  0  0  0  0  0  0  0  0
    3.5959   -3.4282   -2.3433 C   0  0  0  0  0  0  0  0  0  0  0  0
    4.1621   -4.7806   -2.7924 C   0  0  0  0  0  0  0  0  0  0  0  0
    5.4837   -5.1449   -3.0451 C   0  0  0  0  0  0  0  0  0  0  0  0
    5.8134   -6.4877   -3.4215 C   0  0  0  0  0  0  0  0  0  0  0  0
    4.8373   -7.4735   -3.5549 C   0  0  0  0  0  0  0  0  0  0  0  0
    5.1518   -8.7450   -3.8308 F   0  0  0  0  0  0  0  0  0  0  0  0
    3.5284   -7.1307   -3.4088 C   0  0  0  0  0  0  0  0  0  0  0  0
    3.2431   -5.8102   -3.0689 C   0  0  0  0  0  0  0  0  0  0  0  0
    4.3339   -2.1084   -1.2604 N   0  0  0  0  0  0  0  0  0  0  0  0
    5.7942   -2.0201   -0.9535 C   0  0  0  0  0  0  0  0  0  0  0  0
    6.3351   -1.8292    0.5125 C   0  0  0  0  0  0  0  0  0  0  0  0
    6.9280   -2.9870    1.3762 C   0  0  1  0  0  0  0  0  0  0  0  0
    7.7065   -3.8782    0.5906 O   0  0  0  0  0  0  0  0  0  0  0  0
    7.7640   -2.4305    2.5751 C   0  0  0  0  0  0  0  0  0  0  0  0
    8.2118   -3.3655    3.7350 C   0  0  1  0  0  0  0  0  0  0  0  0
    7.1188   -3.8222    4.5220 O   0  0  0  0  0  0  0  0  0  0  0  0
    9.0095   -4.6076    3.3609 C   0  0  0  0  0  0  0  0  0  0  0  0
   10.2540   -4.2489    2.6045 C   0  0  0  0  0  0  0  0  0  0  0  0
   11.0061   -3.3336    2.9035 O   0  0  0  0  0  0  0  0  0  0  0  0
   10.4677   -5.0308    1.5234 O   0  0  0  0  0  0  0  0  0  0  0  0
   -0.1629   -0.1863    0.4447 H   0  0  0  0  0  0  0  0  0  0  0  0
   -0.3954   -0.0992    2.1520 H   0  0  0  0  0  0  0  0  0  0  0  0
   -0.1330   -1.6829    1.3755 H   0  0  0  0  0  0  0  0  0  0  0  0
    1.9602   -0.0320    0.5693 H   0  0  0  0  0  0  0  0  0  0  0  0
    1.4724    0.6658    3.4327 H   0  0  0  0  0  0  0  0  0  0  0  0
    1.4125    1.6685    1.9864 H   0  0  0  0  0  0  0  0  0  0  0  0
    2.9487    1.0911    2.5504 H   0  0  0  0  0  0  0  0  0  0  0  0
    4.7905   -0.0330    3.1202 H   0  0  0  0  0  0  0  0  0  0  0  0
    6.6424    1.1746    4.2254 H   0  0  0  0  0  0  0  0  0  0  0  0
    7.6996    1.9029    6.3362 H   0  0  0  0  0  0  0  0  0  0  0  0
    6.6601    1.3682    8.5222 H   0  0  0  0  0  0  0  0  0  0  0  0
    4.4976    0.1517    8.5909 H   0  0  0  0  0  0  0  0  0  0  0  0
    3.4158   -0.5476    6.5316 H   0  0  0  0  0  0  0  0  0  0  0  0
    3.4030   -4.3190    5.1488 H   0  0  0  0  0  0  0  0  0  0  0  0
    4.5506   -6.1054    6.3203 H   0  0  0  0  0  0  0  0  0  0  0  0
    5.8629   -7.7983    5.0687 H   0  0  0  0  0  0  0  0  0  0  0  0
    6.1464   -7.5554    2.6104 H   0  0  0  0  0  0  0  0  0  0  0  0
    5.2231   -5.6044    1.4485 H   0  0  0  0  0  0  0  0  0  0  0  0
    2.5736   -6.4354    2.7987 H   0  0  0  0  0  0  0  0  0  0  0  0
    2.1366   -8.6775    1.9652 H   0  0  0  0  0  0  0  0  0  0  0  0
    0.9514   -7.0823   -1.7708 H   0  0  0  0  0  0  0  0  0  0  0  0
    1.8313   -5.0226   -1.1450 H   0  0  0  0  0  0  0  0  0  0  0  0
    1.3809   -2.2325   -0.6787 H   0  0  0  0  0  0  0  0  0  0  0  0
    2.3298   -3.4943   -0.9596 H   0  0  0  0  0  0  0  0  0  0  0  0
    4.4226   -1.8663   -3.1846 H   0  0  0  0  0  0  0  0  0  0  0  0
    3.6832   -0.4666   -2.8732 H   0  0  0  0  0  0  0  0  0  0  0  0
    3.1447   -2.2101   -5.0751 H   0  0  0  0  0  0  0  0  0  0  0  0
    1.1076   -0.3193   -4.7101 H   0  0  0  0  0  0  0  0  0  0  0  0
    4.5324   -0.1768   -4.9261 H   0  0  0  0  0  0  0  0  0  0  0  0
    3.1230    0.7903   -4.4555 H   0  0  0  0  0  0  0  0  0  0  0  0
    3.3562   -0.5818   -7.1588 H   0  0  0  0  0  0  0  0  0  0  0  0
    1.5239    1.3144   -6.0566 H   0  0  0  0  0  0  0  0  0  0  0  0
    3.7016    2.3830   -6.4025 H   0  0  0  0  0  0  0  0  0  0  0  0
    3.6830    1.7633   -8.0269 H   0  0  0  0  0  0  0  0  0  0  0  0
    5.2848    0.3649   -8.6497 H   0  0  0  0  0  0  0  0  0  0  0  0
    3.1878    2.9345   -0.9050 H   0  0  0  0  0  0  0  0  0  0  0  0
    1.9233    1.8376   -0.4037 H   0  0  0  0  0  0  0  0  0  0  0  0
    2.3906    1.9693   -2.1228 H   0  0  0  0  0  0  0  0  0  0  0  0
    4.5109    0.9941   -1.7585 H   0  0  0  0  0  0  0  0  0  0  0  0
    4.2851    0.4075    1.1392 H   0  0  0  0  0  0  0  0  0  0  0  0
    4.5598    2.0891    0.6761 H   0  0  0  0  0  0  0  0  0  0  0  0
    5.6656    0.8392    0.1495 H   0  0  0  0  0  0  0  0  0  0  0  0
   -0.4243   -1.8566   -3.0943 H   0  0  0  0  0  0  0  0  0  0  0  0
   -1.6761    1.5779   -2.4543 H   0  0  0  0  0  0  0  0  0  0  0  0
   -3.9933    2.1908   -2.8654 H   0  0  0  0  0  0  0  0  0  0  0  0
   -5.6651    0.4695   -3.5039 H   0  0  0  0  0  0  0  0  0  0  0  0
   -4.9727   -1.9063   -3.7110 H   0  0  0  0  0  0  0  0  0  0  0  0
   -2.6289   -2.5455   -3.3448 H   0  0  0  0  0  0  0  0  0  0  0  0
    1.7445   -4.1954   -5.1914 H   0  0  0  0  0  0  0  0  0  0  0  0
    0.2434   -6.0994   -5.6612 H   0  0  0  0  0  0  0  0  0  0  0  0
   -1.5608   -6.7053   -4.0684 H   0  0  0  0  0  0  0  0  0  0  0  0
   -1.8921   -5.3643   -2.0061 H   0  0  0  0  0  0  0  0  0  0  0  0
   -0.3220   -3.5780   -1.4409 H   0  0  0  0  0  0  0  0  0  0  0  0
    6.2991   -4.4321   -2.9959 H   0  0  0  0  0  0  0  0  0  0  0  0
    6.8398   -6.7856   -3.6145 H   0  0  0  0  0  0  0  0  0  0  0  0
    2.7245   -7.8526   -3.5169 H   0  0  0  0  0  0  0  0  0  0  0  0
    2.1940   -5.6355   -2.9668 H   0  0  0  0  0  0  0  0  0  0  0  0
    6.0554   -1.0736   -1.4621 H   0  0  0  0  0  0  0  0  0  0  0  0
    6.3145   -2.8034   -1.4855 H   0  0  0  0  0  0  0  0  0  0  0  0
    5.5930   -1.3196    1.1282 H   0  0  0  0  0  0  0  0  0  0  0  0
    7.1722   -1.1233    0.4066 H   0  0  0  0  0  0  0  0  0  0  0  0
    6.1044   -3.5469    1.7837 H   0  0  0  0  0  0  0  0  0  0  0  0
    8.5306   -3.4278    0.3343 H   0  0  0  0  0  0  0  0  0  0  0  0
    7.1858   -1.6221    3.0402 H   0  0  0  0  0  0  0  0  0  0  0  0
    8.6750   -1.9761    2.1662 H   0  0  0  0  0  0  0  0  0  0  0  0
    8.8285   -2.7591    4.4136 H   0  0  0  0  0  0  0  0  0  0  0  0
    6.3875   -3.1821    4.5215 H   0  0  0  0  0  0  0  0  0  0  0  0
    8.3781   -5.3005    2.7975 H   0  0  0  0  0  0  0  0  0  0  0  0
    9.3152   -5.1570    4.2628 H   0  0  0  0  0  0  0  0  0  0  0  0
    9.7798   -5.7160    1.4026 H   0  0  0  0  0  0  0  0  0  0  0  0
  1  2  1  0  0  0  0
  1 83  1  0  0  0  0
  1 84  1  0  0  0  0
  1 85  1  0  0  0  0
  2  3  1  0  0  0  0
  2  4  1  0  0  0  0
  2 86  1  0  0  0  0
  3 87  1  0  0  0  0
  3 88  1  0  0  0  0
  3 89  1  0  0  0  0
  4  5  2  0  0  0  0
  4 30  1  0  0  0  0
  5  6  1  0  0  0  0
  5 15  1  0  0  0  0
  6  7  2  0  0  0  0
  6  8  1  0  0  0  0
  8  9  1  0  0  0  0
  8 90  1  0  0  0  0
  9 10  1  0  0  0  0
  9 14  2  0  0  0  0
 10 11  2  0  0  0  0
 10 91  1  0  0  0  0
 11 12  1  0  0  0  0
 11 92  1  0  0  0  0
 12 13  2  0  0  0  0
 12 93  1  0  0  0  0
 13 14  1  0  0  0  0
 13 94  1  0  0  0  0
 14 95  1  0  0  0  0
 15 16  1  0  0  0  0
 15 22  2  0  0  0  0
 16 17  1  0  0  0  0
 16 21  2  0  0  0  0
 17 18  2  0  0  0  0
 17 96  1  0  0  0  0
 18 19  1  0  0  0  0
 18 97  1  0  0  0  0
 19 20  2  0  0  0  0
 19 98  1  0  0  0  0
 20 21  1  0  0  0  0
 20 99  1  0  0  0  0
 21100  1  0  0  0  0
 22 23  1  0  0  0  0
 22 30  1  0  0  0  0
 23 24  1  0  0  0  0
 23 29  2  0  0  0  0
 24 25  2  0  0  0  0
 24101  1  0  0  0  0
 25 26  1  0  0  0  0
 25102  1  0  0  0  0
 26 27  1  0  0  0  0
 26 28  2  0  0  0  0
 28 29  1  0  0  0  0
 28103  1  0  0  0  0
 29104  1  0  0  0  0
 30 31  1  0  0  0  0
 31 32  1  0  0  0  0
 31105  1  0  0  0  0
 31106  1  0  0  0  0
 32 33  1  0  0  0  0
 32107  1  0  0  0  0
 32108  1  0  0  0  0
 33 34  1  0  0  0  0
 33 35  1  0  0  0  0
 33109  1  6  0  0  0
 34110  1  0  0  0  0
 35 36  1  0  0  0  0
 35111  1  0  0  0  0
 35112  1  0  0  0  0
 36 37  1  0  0  0  0
 36 38  1  0  0  0  0
 36113  1  6  0  0  0
 37114  1  0  0  0  0
 38 39  1  0  0  0  0
 38115  1  0  0  0  0
 38116  1  0  0  0  0
 39 40  2  0  0  0  0
 39 41  1  0  0  0  0
 41117  1  0  0  0  0
 42 43  1  0  0  0  0
 42118  1  0  0  0  0
 42119  1  0  0  0  0
 42120  1  0  0  0  0
 43 44  1  0  0  0  0
 43 45  1  0  0  0  0
 43121  1  0  0  0  0
 44122  1  0  0  0  0
 44123  1  0  0  0  0
 44124  1  0  0  0  0
 45 46  2  0  0  0  0
 45 71  1  0  0  0  0
 46 47  1  0  0  0  0
 46 56  1  0  0  0  0
 47 48  2  0  0  0  0
 47 49  1  0  0  0  0
 49 50  1  0  0  0  0
 49125  1  0  0  0  0
 50 51  1  0  0  0  0
 50 55  2  0  0  0  0
 51 52  2  0  0  0  0
 51126  1  0  0  0  0
 52 53  1  0  0  0  0
 52127  1  0  0  0  0
 53 54  2  0  0  0  0
 53128  1  0  0  0  0
 54 55  1  0  0  0  0
 54129  1  0  0  0  0
 55130  1  0  0  0  0
 56 57  1  0  0  0  0
 56 63  2  0  0  0  0
 57 58  1  0  0  0  0
 57 62  2  0  0  0  0
 58 59  2  0  0  0  0
 58131  1  0  0  0  0
 59 60  1  0  0  0  0
 59132  1  0  0  0  0
 60 61  2  0  0  0  0
 60133  1  0  0  0  0
 61 62  1  0  0  0  0
 61134  1  0  0  0  0
 62135  1  0  0  0  0
 63 64  1  0  0  0  0
 63 71  1  0  0  0  0
 64 65  1  0  0  0  0
 64 70  2  0  0  0  0
 65 66  2  0  0  0  0
 65136  1  0  0  0  0
 66 67  1  0  0  0  0
 66137  1  0  0  0  0
 67 68  1  0  0  0  0
 67 69  2  0  0  0  0
 69 70  1  0  0  0  0
 69138  1  0  0  0  0
 70139  1  0  0  0  0
 71 72  1  0  0  0  0
 72 73  1  0  0  0  0
 72140  1  0  0  0  0
 72141  1  0  0  0  0
 73 74  1  0  0  0  0
 73142  1  0  0  0  0
 73143  1  0  0  0  0
 74 75  1  0  0  0  0
 74 76  1  0  0  0  0
 74144  1  1  0  0  0
 75145  1  0  0  0  0
 76 77  1  0  0  0  0
 76146  1  0  0  0  0
 76147  1  0  0  0  0
 77 78  1  0  0  0  0
 77 79  1  0  0  0  0
 77148  1  1  0  0  0
 78149  1  0  0  0  0
 79 80  1  0  0  0  0
 79150  1  0  0  0  0
 79151  1  0  0  0  0
 80 81  2  0  0  0  0
 80 82  1  0  0  0  0
 82152  1  0  0  0  0
M  END
>  <Energy>
1414.77

$$$$