25222999
  -OEChem-03242010103D

 84 89  0     1  0  0  0  0  0999 V2000
   12.3747   -1.8685   -2.1948 O   0  0  0  0  0  0  0  0  0  0  0  0
   13.6164   -0.9072    0.0970 O   0  0  0  0  0  0  0  0  0  0  0  0
   -1.2923   -0.6384   -0.3373 O   0  0  0  0  0  0  0  0  0  0  0  0
   -6.5867    4.2252   -0.3626 O   0  0  0  0  0  0  0  0  0  0  0  0
   -5.3948   -1.9980    0.2731 O   0  0  0  0  0  0  0  0  0  0  0  0
   -7.5921    2.3422   -1.2245 O   0  0  0  0  0  0  0  0  0  0  0  0
    7.3030    0.1155    0.5963 N   0  0  2  0  0  0  0  0  0  0  0  0
   -0.4275    1.4266    0.3808 N   0  0  0  0  0  0  0  0  0  0  0  0
   -6.3000    0.1128   -0.2273 N   0  0  0  0  0  0  0  0  0  0  0  0
   -8.7310   -0.9828   -0.0934 N   0  0  0  0  0  0  0  0  0  0  0  0
    7.9572    1.2202    1.3082 C   0  0  0  0  0  0  0  0  0  0  0  0
    8.0355   -0.1956   -0.6440 C   0  0  0  0  0  0  0  0  0  0  0  0
    9.3413    0.7790    1.7948 C   0  0  0  0  0  0  0  0  0  0  0  0
    9.5162   -0.4088   -0.4268 C   0  0  0  0  0  0  0  0  0  0  0  0
   10.1494    0.0980    0.7210 C   0  0  0  0  0  0  0  0  0  0  0  0
    5.9100    0.4442    0.2959 C   0  0  0  0  0  0  0  0  0  0  0  0
    5.0222    0.2416    1.5242 C   0  0  0  0  0  0  0  0  0  0  0  0
   10.2793   -1.0593   -1.4058 C   0  0  0  0  0  0  0  0  0  0  0  0
   11.5279   -0.0854    0.8904 C   0  0  0  0  0  0  0  0  0  0  0  0
   11.6530   -1.2283   -1.2328 C   0  0  0  0  0  0  0  0  0  0  0  0
   12.2761   -0.7439   -0.0850 C   0  0  0  0  0  0  0  0  0  0  0  0
    3.5788    0.5561    1.2217 C   0  0  0  0  0  0  0  0  0  0  0  0
    3.0936    1.8513    1.4027 C   0  0  0  0  0  0  0  0  0  0  0  0
    2.7288   -0.4489    0.7600 C   0  0  0  0  0  0  0  0  0  0  0  0
    1.7584    2.1414    1.1219 C   0  0  0  0  0  0  0  0  0  0  0  0
    1.3935   -0.1588    0.4794 C   0  0  0  0  0  0  0  0  0  0  0  0
    0.9083    1.1364    0.6604 C   0  0  0  0  0  0  0  0  0  0  0  0
   12.9270   -1.0631   -3.2341 C   0  0  0  0  0  0  0  0  0  0  0  0
   14.0396   -2.0928    0.7673 C   0  0  0  0  0  0  0  0  0  0  0  0
   -1.4201    0.5551   -0.0861 C   0  0  0  0  0  0  0  0  0  0  0  0
   -2.7667    1.1594   -0.2633 C   0  0  0  0  0  0  0  0  0  0  0  0
   -3.9074    0.3625   -0.1658 C   0  0  0  0  0  0  0  0  0  0  0  0
   -5.1710    0.9301   -0.3297 C   0  0  0  0  0  0  0  0  0  0  0  0
   -2.8895    2.5239   -0.5250 C   0  0  0  0  0  0  0  0  0  0  0  0
   -5.2938    2.2948   -0.5915 C   0  0  0  0  0  0  0  0  0  0  0  0
   -4.1531    3.0916   -0.6892 C   0  0  0  0  0  0  0  0  0  0  0  0
   -6.3477   -1.2566    0.0580 C   0  0  0  0  0  0  0  0  0  0  0  0
   -7.7114   -1.8441    0.1268 C   0  0  0  0  0  0  0  0  0  0  0  0
   -6.5988    2.9196   -0.7679 C   0  0  0  0  0  0  0  0  0  0  0  0
  -10.2608   -2.8162    0.2314 C   0  0  0  0  0  0  0  0  0  0  0  0
   -9.9892   -1.4594   -0.0426 C   0  0  0  0  0  0  0  0  0  0  0  0
   -7.8778   -3.1864    0.4018 C   0  0  0  0  0  0  0  0  0  0  0  0
   -9.1754   -3.6744    0.4536 C   0  0  0  0  0  0  0  0  0  0  0  0
  -11.5867   -3.2794    0.2770 C   0  0  0  0  0  0  0  0  0  0  0  0
  -11.0679   -0.6073   -0.2633 C   0  0  0  0  0  0  0  0  0  0  0  0
  -12.6463   -2.4052    0.0524 C   0  0  0  0  0  0  0  0  0  0  0  0
  -12.3861   -1.0675   -0.2181 C   0  0  0  0  0  0  0  0  0  0  0  0
   -7.8158    4.9490   -0.4852 C   0  0  0  0  0  0  0  0  0  0  0  0
    7.3866    1.5353    2.1880 H   0  0  0  0  0  0  0  0  0  0  0  0
    8.0515    2.1000    0.6567 H   0  0  0  0  0  0  0  0  0  0  0  0
    7.9149    0.6117   -1.3789 H   0  0  0  0  0  0  0  0  0  0  0  0
    7.6163   -1.1137   -1.0748 H   0  0  0  0  0  0  0  0  0  0  0  0
    9.2284    0.0783    2.6320 H   0  0  0  0  0  0  0  0  0  0  0  0
    9.8821    1.6583    2.1646 H   0  0  0  0  0  0  0  0  0  0  0  0
    5.8141    1.4636   -0.1017 H   0  0  0  0  0  0  0  0  0  0  0  0
    5.5351   -0.2245   -0.4915 H   0  0  0  0  0  0  0  0  0  0  0  0
    5.3431    0.8680    2.3646 H   0  0  0  0  0  0  0  0  0  0  0  0
    5.1007   -0.7941    1.8811 H   0  0  0  0  0  0  0  0  0  0  0  0
    9.7993   -1.4353   -2.3065 H   0  0  0  0  0  0  0  0  0  0  0  0
   12.0186    0.2878    1.7864 H   0  0  0  0  0  0  0  0  0  0  0  0
    3.7468    2.6431    1.7598 H   0  0  0  0  0  0  0  0  0  0  0  0
    3.0969   -1.4611    0.6136 H   0  0  0  0  0  0  0  0  0  0  0  0
    1.3943    3.1555    1.2671 H   0  0  0  0  0  0  0  0  0  0  0  0
    0.7998   -0.9898    0.1259 H   0  0  0  0  0  0  0  0  0  0  0  0
   13.4779   -1.7156   -3.9170 H   0  0  0  0  0  0  0  0  0  0  0  0
   13.6202   -0.3233   -2.8215 H   0  0  0  0  0  0  0  0  0  0  0  0
   12.1315   -0.5616   -3.7943 H   0  0  0  0  0  0  0  0  0  0  0  0
   15.1312   -2.0803    0.8290 H   0  0  0  0  0  0  0  0  0  0  0  0
   13.7308   -2.9823    0.2092 H   0  0  0  0  0  0  0  0  0  0  0  0
   13.6317   -2.1255    1.7826 H   0  0  0  0  0  0  0  0  0  0  0  0
   -0.6902    2.3853    0.5901 H   0  0  0  0  0  0  0  0  0  0  0  0
   -3.7455   -0.6844    0.0410 H   0  0  0  0  0  0  0  0  0  0  0  0
   -2.0298    3.1750   -0.6507 H   0  0  0  0  0  0  0  0  0  0  0  0
   -4.2125    4.1532   -0.9151 H   0  0  0  0  0  0  0  0  0  0  0  0
   -7.1973    0.5715   -0.3623 H   0  0  0  0  0  0  0  0  0  0  0  0
   -7.0436   -3.8572    0.5748 H   0  0  0  0  0  0  0  0  0  0  0  0
   -9.3359   -4.7284    0.6683 H   0  0  0  0  0  0  0  0  0  0  0  0
  -11.8013   -4.3248    0.4878 H   0  0  0  0  0  0  0  0  0  0  0  0
  -10.8903    0.4452   -0.4771 H   0  0  0  0  0  0  0  0  0  0  0  0
  -13.6694   -2.7667    0.0885 H   0  0  0  0  0  0  0  0  0  0  0  0
  -13.2068   -0.3784   -0.3947 H   0  0  0  0  0  0  0  0  0  0  0  0
   -7.6495    5.9664   -0.1219 H   0  0  0  0  0  0  0  0  0  0  0  0
   -8.5927    4.4790    0.1252 H   0  0  0  0  0  0  0  0  0  0  0  0
   -8.1232    4.9946   -1.5341 H   0  0  0  0  0  0  0  0  0  0  0  0
  1 20  1  0  0  0  0
  1 28  1  0  0  0  0
  2 21  1  0  0  0  0
  2 29  1  0  0  0  0
  3 30  2  0  0  0  0
  4 39  1  0  0  0  0
  4 48  1  0  0  0  0
  5 37  2  0  0  0  0
  6 39  2  0  0  0  0
  7 11  1  0  0  0  0
  7 12  1  0  0  0  0
  7 16  1  0  0  0  0
  8 27  1  0  0  0  0
  8 30  1  0  0  0  0
  8 71  1  0  0  0  0
  9 33  1  0  0  0  0
  9 37  1  0  0  0  0
  9 75  1  0  0  0  0
 10 38  2  0  0  0  0
 10 41  1  0  0  0  0
 11 13  1  0  0  0  0
 11 49  1  0  0  0  0
 11 50  1  0  0  0  0
 12 14  1  0  0  0  0
 12 51  1  0  0  0  0
 12 52  1  0  0  0  0
 13 15  1  0  0  0  0
 13 53  1  0  0  0  0
 13 54  1  0  0  0  0
 14 15  1  0  0  0  0
 14 18  2  0  0  0  0
 15 19  2  0  0  0  0
 16 17  1  0  0  0  0
 16 55  1  0  0  0  0
 16 56  1  0  0  0  0
 17 22  1  0  0  0  0
 17 57  1  0  0  0  0
 17 58  1  0  0  0  0
 18 20  1  0  0  0  0
 18 59  1  0  0  0  0
 19 21  1  0  0  0  0
 19 60  1  0  0  0  0
 20 21  2  0  0  0  0
 22 23  2  0  0  0  0
 22 24  1  0  0  0  0
 23 25  1  0  0  0  0
 23 61  1  0  0  0  0
 24 26  2  0  0  0  0
 24 62  1  0  0  0  0
 25 27  2  0  0  0  0
 25 63  1  0  0  0  0
 26 27  1  0  0  0  0
 26 64  1  0  0  0  0
 28 65  1  0  0  0  0
 28 66  1  0  0  0  0
 28 67  1  0  0  0  0
 29 68  1  0  0  0  0
 29 69  1  0  0  0  0
 29 70  1  0  0  0  0
 30 31  1  0  0  0  0
 31 32  2  0  0  0  0
 31 34  1  0  0  0  0
 32 33  1  0  0  0  0
 32 72  1  0  0  0  0
 33 35  2  0  0  0  0
 34 36  2  0  0  0  0
 34 73  1  0  0  0  0
 35 36  1  0  0  0  0
 35 39  1  0  0  0  0
 36 74  1  0  0  0  0
 37 38  1  0  0  0  0
 38 42  1  0  0  0  0
 40 41  1  0  0  0  0
 40 43  1  0  0  0  0
 40 44  2  0  0  0  0
 41 45  2  0  0  0  0
 42 43  2  0  0  0  0
 42 76  1  0  0  0  0
 43 77  1  0  0  0  0
 44 46  1  0  0  0  0
 44 78  1  0  0  0  0
 45 47  1  0  0  0  0
 45 79  1  0  0  0  0
 46 47  2  0  0  0  0
 46 80  1  0  0  0  0
 47 81  1  0  0  0  0
 48 82  1  0  0  0  0
 48 83  1  0  0  0  0
 48 84  1  0  0  0  0
M  END
> <PUBCHEM_COMPOUND_CID>
25222999

> <PUBCHEM_CONFORMER_RMSD>
1.4

> <PUBCHEM_CONFORMER_DIVERSEORDER>
2
40
19
15
60
45
51
54
3
59
49
35
29
7
28
36
55
16
22
21
52
14
27
6
47
12
58
57
39
63
38
23
37
61
62
46
41
17
31
42
24
25
10
48
33
20
43
18
53
32
50
5
34
56
9
13
11
30
44
8
26
1
4

> <PUBCHEM_MMFF94_PARTIAL_CHARGES>
64
1 -0.36
10 -0.62
11 0.27
12 0.41
13 0.14
14 -0.14
15 -0.14
16 0.27
17 0.14
18 -0.15
19 -0.15
2 -0.36
20 0.08
21 0.08
22 -0.14
23 -0.15
24 -0.15
25 -0.15
26 -0.15
27 0.12
28 0.28
29 0.28
3 -0.57
30 0.54
31 0.09
32 -0.15
33 0.12
34 -0.15
35 0.09
36 -0.15
37 0.54
38 0.4
39 0.63
4 -0.43
41 0.31
42 -0.15
43 -0.15
44 -0.15
45 -0.15
46 -0.15
47 -0.15
48 0.28
5 -0.57
59 0.15
6 -0.57
60 0.15
61 0.15
62 0.15
63 0.15
64 0.15
7 -0.81
71 0.37
72 0.15
73 0.15
74 0.15
75 0.37
76 0.15
77 0.15
78 0.15
79 0.15
8 -0.55
80 0.15
81 0.15
9 -0.55

> <PUBCHEM_EFFECTIVE_ROTOR_COUNT>
13.8

> <PUBCHEM_PHARMACOPHORE_FEATURES>
15
1 1 acceptor
1 10 acceptor
1 2 acceptor
1 3 acceptor
1 5 acceptor
1 6 acceptor
1 7 cation
1 8 donor
1 9 donor
6 10 38 40 41 42 43 rings
6 14 15 18 19 20 21 rings
6 22 23 24 25 26 27 rings
6 31 32 33 34 35 36 rings
6 40 41 44 45 46 47 rings
6 7 11 12 13 14 15 rings

> <PUBCHEM_HEAVY_ATOM_COUNT>
48

> <PUBCHEM_ATOM_DEF_STEREO_COUNT>
0

> <PUBCHEM_ATOM_UDEF_STEREO_COUNT>
0

> <PUBCHEM_BOND_DEF_STEREO_COUNT>
0

> <PUBCHEM_BOND_UDEF_STEREO_COUNT>
0

> <PUBCHEM_ISOTOPIC_ATOM_COUNT>
0

> <PUBCHEM_COMPONENT_COUNT>
1

> <PUBCHEM_CACTVS_TAUTO_COUNT>
6

> <PUBCHEM_CONFORMER_ID>
0180DF5700000002

> <PUBCHEM_MMFF94_ENERGY>
174.3197

> <PUBCHEM_FEATURE_SELFOVERLAP>
76.185

> <PUBCHEM_SHAPE_FINGERPRINT>
11146346 171 18342737433670236936
12013929 2 18411976984645115059
12013929 94 18409448094061643643
12089408 11 17530961355370584608
12539745 222 18273216405480821713
131240 100 18341890819245774520
15065858 18 18343578531008237520
15247644 1 18272370910302498751
20105231 36 18343584053623861146
21057603 192 18343018862843087673
21792961 116 17917707998782256937
3092352 35 17894907418252790970
44280117 145 18187642471562678053
44389302 135 18060421352361363711
5028188 123 18260830371415692356
54728670 133 16200163050277277289
636775 8 18407759253065360675

> <PUBCHEM_SHAPE_MULTIPOLES>
932.68
68.77
4.12
1.43
110.76
2.64
-0.68
-57.28
-14.3
-17.95
-0.55
6.43
-0.11
5.83

> <PUBCHEM_SHAPE_SELFOVERLAP>
2044.445

> <PUBCHEM_SHAPE_VOLUME>
502.7

> <PUBCHEM_COORDINATE_TYPE>
2
5
10

$$$$