127028358
  -OEChem-03242010103D

 59 62  0     0  0  0  0  0  0999 V2000
    2.8904   -0.7433    0.2298 O   0  0  0  0  0  0  0  0  0  0  0  0
    4.0149    3.1513    0.5915 O   0  0  0  0  0  0  0  0  0  0  0  0
    6.5300    2.4565    0.1316 O   0  0  0  0  0  0  0  0  0  0  0  0
    7.3423   -2.1644   -0.6062 O   0  0  0  0  0  0  0  0  0  0  0  0
   -8.4728    1.7749   -1.4122 O   0  0  0  0  0  0  0  0  0  0  0  0
   -1.9209   -1.2680    0.1832 N   0  0  0  0  0  0  0  0  0  0  0  0
    0.6760   -0.1799    0.6259 N   0  0  0  0  0  0  0  0  0  0  0  0
   -8.0758    0.3948    0.4576 N   0  0  0  0  0  0  0  0  0  0  0  0
   -1.5484    0.0352   -0.3858 C   0  0  0  0  0  0  0  0  0  0  0  0
   -0.7444   -2.1463    0.2613 C   0  0  0  0  0  0  0  0  0  0  0  0
    0.3512   -1.5162    1.1234 C   0  0  0  0  0  0  0  0  0  0  0  0
   -0.4704    0.7132    0.4621 C   0  0  0  0  0  0  0  0  0  0  0  0
   -2.9766   -1.8932   -0.6126 C   0  0  0  0  0  0  0  0  0  0  0  0
    1.9625    0.2565    0.4985 C   0  0  0  0  0  0  0  0  0  0  0  0
   -4.3255   -1.2873   -0.3294 C   0  0  0  0  0  0  0  0  0  0  0  0
    2.2993    1.5510    0.6242 C   0  0  0  0  0  0  0  0  0  0  0  0
    4.2113   -0.4040    0.0838 C   0  0  0  0  0  0  0  0  0  0  0  0
   -4.8950   -0.3960   -1.2387 C   0  0  0  0  0  0  0  0  0  0  0  0
   -5.0059   -1.6178    0.8427 C   0  0  0  0  0  0  0  0  0  0  0  0
    4.6735    0.9056    0.1927 C   0  0  0  0  0  0  0  0  0  0  0  0
    3.7054    1.9735    0.4774 C   0  0  0  0  0  0  0  0  0  0  0  0
   -6.1450    0.1646   -0.9763 C   0  0  0  0  0  0  0  0  0  0  0  0
   -6.2558   -1.0573    1.1052 C   0  0  0  0  0  0  0  0  0  0  0  0
    6.0312    1.1928    0.0341 C   0  0  0  0  0  0  0  0  0  0  0  0
    5.1082   -1.4384   -0.1851 C   0  0  0  0  0  0  0  0  0  0  0  0
   -6.8254   -0.1661    0.1956 C   0  0  0  0  0  0  0  0  0  0  0  0
    6.4654   -1.1567   -0.3441 C   0  0  0  0  0  0  0  0  0  0  0  0
    6.9257    0.1562   -0.2349 C   0  0  0  0  0  0  0  0  0  0  0  0
   -8.8002    1.2997   -0.3296 C   0  0  0  0  0  0  0  0  0  0  0  0
    6.5863    3.2253   -1.0688 C   0  0  0  0  0  0  0  0  0  0  0  0
    6.8053   -3.4826   -0.7051 C   0  0  0  0  0  0  0  0  0  0  0  0
  -10.1166    1.6665    0.3083 C   0  0  0  0  0  0  0  0  0  0  0  0
   -1.1841   -0.0808   -1.4157 H   0  0  0  0  0  0  0  0  0  0  0  0
   -0.3505   -2.3547   -0.7426 H   0  0  0  0  0  0  0  0  0  0  0  0
   -2.4103    0.7105   -0.4162 H   0  0  0  0  0  0  0  0  0  0  0  0
   -1.0219   -3.1066    0.7125 H   0  0  0  0  0  0  0  0  0  0  0  0
    0.0106   -1.4346    2.1637 H   0  0  0  0  0  0  0  0  0  0  0  0
    1.2185   -2.1861    1.1311 H   0  0  0  0  0  0  0  0  0  0  0  0
   -0.2110    1.6463   -0.0505 H   0  0  0  0  0  0  0  0  0  0  0  0
   -0.8691    0.9798    1.4490 H   0  0  0  0  0  0  0  0  0  0  0  0
   -3.0578   -2.9614   -0.3658 H   0  0  0  0  0  0  0  0  0  0  0  0
   -2.7492   -1.8647   -1.6870 H   0  0  0  0  0  0  0  0  0  0  0  0
    1.5927    2.3379    0.8604 H   0  0  0  0  0  0  0  0  0  0  0  0
   -4.3746   -0.1305   -2.1552 H   0  0  0  0  0  0  0  0  0  0  0  0
   -4.5725   -2.3109    1.5590 H   0  0  0  0  0  0  0  0  0  0  0  0
   -6.5206    0.8459   -1.7268 H   0  0  0  0  0  0  0  0  0  0  0  0
   -6.7748   -1.3238    2.0224 H   0  0  0  0  0  0  0  0  0  0  0  0
    4.6921   -2.4378   -0.2589 H   0  0  0  0  0  0  0  0  0  0  0  0
    7.9848    0.3690   -0.3591 H   0  0  0  0  0  0  0  0  0  0  0  0
   -8.5073    0.1040    1.3325 H   0  0  0  0  0  0  0  0  0  0  0  0
    6.8102    4.2617   -0.8018 H   0  0  0  0  0  0  0  0  0  0  0  0
    5.6334    3.1993   -1.6071 H   0  0  0  0  0  0  0  0  0  0  0  0
    7.3863    2.8496   -1.7143 H   0  0  0  0  0  0  0  0  0  0  0  0
    7.6417   -4.1568   -0.9166 H   0  0  0  0  0  0  0  0  0  0  0  0
    6.1050   -3.5704   -1.5427 H   0  0  0  0  0  0  0  0  0  0  0  0
    6.3637   -3.8096    0.2424 H   0  0  0  0  0  0  0  0  0  0  0  0
   -9.9417    2.1073    1.2938 H   0  0  0  0  0  0  0  0  0  0  0  0
  -10.7382    0.7728    0.4125 H   0  0  0  0  0  0  0  0  0  0  0  0
  -10.6416    2.3941   -0.3169 H   0  0  0  0  0  0  0  0  0  0  0  0
  1 14  1  0  0  0  0
  1 17  1  0  0  0  0
  2 21  2  0  0  0  0
  3 24  1  0  0  0  0
  3 30  1  0  0  0  0
  4 27  1  0  0  0  0
  4 31  1  0  0  0  0
  5 29  2  0  0  0  0
  6  9  1  0  0  0  0
  6 10  1  0  0  0  0
  6 13  1  0  0  0  0
  7 11  1  0  0  0  0
  7 12  1  0  0  0  0
  7 14  1  0  0  0  0
  8 26  1  0  0  0  0
  8 29  1  0  0  0  0
  8 50  1  0  0  0  0
  9 12  1  0  0  0  0
  9 33  1  0  0  0  0
  9 35  1  0  0  0  0
 10 11  1  0  0  0  0
 10 34  1  0  0  0  0
 10 36  1  0  0  0  0
 11 37  1  0  0  0  0
 11 38  1  0  0  0  0
 12 39  1  0  0  0  0
 12 40  1  0  0  0  0
 13 15  1  0  0  0  0
 13 41  1  0  0  0  0
 13 42  1  0  0  0  0
 14 16  2  0  0  0  0
 15 18  2  0  0  0  0
 15 19  1  0  0  0  0
 16 21  1  0  0  0  0
 16 43  1  0  0  0  0
 17 20  2  0  0  0  0
 17 25  1  0  0  0  0
 18 22  1  0  0  0  0
 18 44  1  0  0  0  0
 19 23  2  0  0  0  0
 19 45  1  0  0  0  0
 20 21  1  0  0  0  0
 20 24  1  0  0  0  0
 22 26  2  0  0  0  0
 22 46  1  0  0  0  0
 23 26  1  0  0  0  0
 23 47  1  0  0  0  0
 24 28  2  0  0  0  0
 25 27  2  0  0  0  0
 25 48  1  0  0  0  0
 27 28  1  0  0  0  0
 28 49  1  0  0  0  0
 29 32  1  0  0  0  0
 30 51  1  0  0  0  0
 30 52  1  0  0  0  0
 30 53  1  0  0  0  0
 31 54  1  0  0  0  0
 31 55  1  0  0  0  0
 31 56  1  0  0  0  0
 32 57  1  0  0  0  0
 32 58  1  0  0  0  0
 32 59  1  0  0  0  0
M  END
> <PUBCHEM_COMPOUND_CID>
127028358

> <PUBCHEM_CONFORMER_RMSD>
1

> <PUBCHEM_CONFORMER_DIVERSEORDER>
3
40
19
44
45
16
2
31
42
30
26
18
22
38
14
28
34
32
11
21
41
24
7
37
33
6
13
12
29
39
23
25
5
35
20
15
4
8
1
43
27
17
36
9
10

> <PUBCHEM_MMFF94_PARTIAL_CHARGES>
40
1 -0.16
10 0.27
11 0.37
12 0.37
13 0.41
14 0.18
15 -0.14
16 -0.14
17 0.08
18 -0.15
19 -0.15
2 -0.57
20 0.09
21 0.47
22 -0.15
23 -0.15
24 0.08
25 -0.15
26 0.12
27 0.08
28 -0.15
29 0.57
3 -0.36
30 0.28
31 0.28
32 0.06
4 -0.36
43 0.15
44 0.15
45 0.15
46 0.15
47 0.15
48 0.15
49 0.15
5 -0.57
50 0.37
6 -0.81
7 -0.84
8 -0.55
9 0.27

> <PUBCHEM_EFFECTIVE_ROTOR_COUNT>
8.2

> <PUBCHEM_PHARMACOPHORE_FEATURES>
12
1 1 acceptor
1 2 acceptor
1 3 acceptor
1 4 acceptor
1 5 acceptor
1 6 cation
1 7 cation
1 8 donor
6 1 14 16 17 20 21 rings
6 15 18 19 22 23 26 rings
6 17 20 24 25 27 28 rings
6 6 7 9 10 11 12 rings

> <PUBCHEM_HEAVY_ATOM_COUNT>
32

> <PUBCHEM_ATOM_DEF_STEREO_COUNT>
0

> <PUBCHEM_ATOM_UDEF_STEREO_COUNT>
0

> <PUBCHEM_BOND_DEF_STEREO_COUNT>
0

> <PUBCHEM_BOND_UDEF_STEREO_COUNT>
0

> <PUBCHEM_ISOTOPIC_ATOM_COUNT>
0

> <PUBCHEM_COMPONENT_COUNT>
1

> <PUBCHEM_CACTVS_TAUTO_COUNT>
7

> <PUBCHEM_CONFORMER_ID>
07924C8600000003

> <PUBCHEM_MMFF94_ENERGY>
115.2852

> <PUBCHEM_FEATURE_SELFOVERLAP>
60.938

> <PUBCHEM_SHAPE_FINGERPRINT>
10 15 17603300437391106273
10066227 112 18411416241740504489
10411042 1 18268434522169367918
10670039 82 16988844944156344211
11181472 205 17988375792320379433
11374522 175 18126287445730658558
11408170 132 18408610275350642228
12144600 37 18336833082384538083
13533116 47 18272652372773212762
14117953 113 17774729684365591726
14400156 413 18272081738897589432
14428016 86 18341614794666438393
14933364 13 18261110794262110555
15064981 113 16558755590363229133
15065858 18 10447926158262501857
15183329 4 17489311909963944595
15276724 80 18342457062321143325
15461852 350 17988638641236808879
1577012 14 18130785710975939767
15840311 113 18333453157928271789
18335252 114 18342730815193835061
19315958 150 18410013277767421228
20105231 36 17603872182942139307
21033648 29 18115016532252933248
21792934 111 18201430364601545114
23522609 53 17773060702628335184
23559900 14 18270956980991903072
255183 451 18058181540629356390
3633792 109 18342459235531689282
4073 2 18115310123823516162
4144715 1 17825957193459712643
439807 62 18408887296530558558
45270241 37 18336273422739146748
4760202 70 11242556456581289987
57303763 176 17630050352340336433
5758199 1 16950280707208888571
6004065 56 10303806596918694435
6698420 124 18334862697697044491
9689198 14 18186802491759348243

> <PUBCHEM_SHAPE_MULTIPOLES>
614.26
30.01
3.09
1
41.68
0.46
0.09
9.78
5.11
-6.04
0.39
0.81
0.02
1.33

> <PUBCHEM_SHAPE_SELFOVERLAP>
1323.4

> <PUBCHEM_SHAPE_VOLUME>
339.5

> <PUBCHEM_COORDINATE_TYPE>
2
5
10

$$$$