127040369
  -OEChem-03242010103D

 53 56  0     0  0  0  0  0  0999 V2000
    2.5467    0.1816    0.9043 O   0  0  0  0  0  0  0  0  0  0  0  0
    0.9169    2.9100    1.9396 O   0  0  0  0  0  0  0  0  0  0  0  0
    4.8040    2.6679   -1.4089 O   0  0  0  0  0  0  0  0  0  0  0  0
    6.5986    0.7437   -1.6992 O   0  0  0  0  0  0  0  0  0  0  0  0
   -4.8410   -2.9004   -1.4136 O   0  5  0  0  0  0  0  0  0  0  0  0
   -3.9514   -2.4936    0.5517 O   0  0  0  0  0  0  0  0  0  0  0  0
    5.6706   -3.3709    0.4838 O   0  0  0  0  0  0  0  0  0  0  0  0
   -2.7483    0.3832   -0.3423 N   0  0  0  0  0  0  0  0  0  0  0  0
   -0.2699    1.2483    0.8249 N   0  0  0  0  0  0  0  0  0  0  0  0
   -4.7529   -2.2112   -0.3700 N   0  3  0  0  0  0  0  0  0  0  0  0
   -1.4705    0.0450   -0.9831 C   0  0  0  0  0  0  0  0  0  0  0  0
   -2.6534    1.6928    0.3165 C   0  0  0  0  0  0  0  0  0  0  0  0
   -0.3291    0.0106    0.0367 C   0  0  0  0  0  0  0  0  0  0  0  0
   -1.5547    1.6799    1.3770 C   0  0  0  0  0  0  0  0  0  0  0  0
   -3.8322    0.3795   -1.3240 C   0  0  0  0  0  0  0  0  0  0  0  0
    0.8856    1.9402    1.1801 C   0  0  0  0  0  0  0  0  0  0  0  0
   -5.1762    0.1841   -0.6743 C   0  0  0  0  0  0  0  0  0  0  0  0
    2.1672    1.4748    0.6126 C   0  0  0  0  0  0  0  0  0  0  0  0
   -5.5902   -1.0705   -0.2272 C   0  0  0  0  0  0  0  0  0  0  0  0
   -6.0138    1.2893   -0.5243 C   0  0  0  0  0  0  0  0  0  0  0  0
    2.8589    2.3407   -0.1381 C   0  0  0  0  0  0  0  0  0  0  0  0
   -6.8417   -1.2200    0.3702 C   0  0  0  0  0  0  0  0  0  0  0  0
    3.7352   -0.2695    0.3860 C   0  0  0  0  0  0  0  0  0  0  0  0
   -7.2656    1.1398    0.0731 C   0  0  0  0  0  0  0  0  0  0  0  0
    4.5598    0.5229   -0.4137 C   0  0  0  0  0  0  0  0  0  0  0  0
    4.1445    1.9028   -0.7188 C   0  0  0  0  0  0  0  0  0  0  0  0
   -7.6795   -0.1149    0.5203 C   0  0  0  0  0  0  0  0  0  0  0  0
    4.1071   -1.5793    0.6890 C   0  0  0  0  0  0  0  0  0  0  0  0
    5.7592    0.0117   -0.9148 C   0  0  0  0  0  0  0  0  0  0  0  0
    5.3046   -2.0928    0.1900 C   0  0  0  0  0  0  0  0  0  0  0  0
    6.1283   -1.2991   -0.6099 C   0  0  0  0  0  0  0  0  0  0  0  0
    4.7832   -4.1268    1.3064 C   0  0  0  0  0  0  0  0  0  0  0  0
   -3.5917    1.9481    0.8203 H   0  0  0  0  0  0  0  0  0  0  0  0
   -2.4446    2.4840   -0.4160 H   0  0  0  0  0  0  0  0  0  0  0  0
   -1.5341   -0.9434   -1.4543 H   0  0  0  0  0  0  0  0  0  0  0  0
   -1.2332    0.7715   -1.7719 H   0  0  0  0  0  0  0  0  0  0  0  0
   -1.4673    2.6745    1.8268 H   0  0  0  0  0  0  0  0  0  0  0  0
   -1.8083    0.9803    2.1832 H   0  0  0  0  0  0  0  0  0  0  0  0
   -0.4697   -0.8147    0.7451 H   0  0  0  0  0  0  0  0  0  0  0  0
    0.6030   -0.1678   -0.5022 H   0  0  0  0  0  0  0  0  0  0  0  0
   -3.6980   -0.4305   -2.0540 H   0  0  0  0  0  0  0  0  0  0  0  0
   -3.8222    1.2934   -1.9348 H   0  0  0  0  0  0  0  0  0  0  0  0
   -5.7064    2.2738   -0.8673 H   0  0  0  0  0  0  0  0  0  0  0  0
    2.5215    3.3498   -0.3448 H   0  0  0  0  0  0  0  0  0  0  0  0
   -7.1781   -2.1917    0.7238 H   0  0  0  0  0  0  0  0  0  0  0  0
   -7.9178    2.0003    0.1901 H   0  0  0  0  0  0  0  0  0  0  0  0
   -8.6540   -0.2311    0.9855 H   0  0  0  0  0  0  0  0  0  0  0  0
    3.4266   -2.1476    1.3145 H   0  0  0  0  0  0  0  0  0  0  0  0
    7.0603   -1.7053   -0.9957 H   0  0  0  0  0  0  0  0  0  0  0  0
    6.2391    1.6327   -1.8426 H   0  0  0  0  0  0  0  0  0  0  0  0
    5.2304   -5.1175    1.4383 H   0  0  0  0  0  0  0  0  0  0  0  0
    3.8131   -4.2768    0.8205 H   0  0  0  0  0  0  0  0  0  0  0  0
    4.6849   -3.6858    2.3042 H   0  0  0  0  0  0  0  0  0  0  0  0
  1 18  1  0  0  0  0
  1 23  1  0  0  0  0
  2 16  2  0  0  0  0
  3 26  2  0  0  0  0
  4 29  1  0  0  0  0
  4 50  1  0  0  0  0
  5 10  1  0  0  0  0
  6 10  2  0  0  0  0
  7 30  1  0  0  0  0
  7 32  1  0  0  0  0
  8 11  1  0  0  0  0
  8 12  1  0  0  0  0
  8 15  1  0  0  0  0
  9 13  1  0  0  0  0
  9 14  1  0  0  0  0
  9 16  1  0  0  0  0
 10 19  1  0  0  0  0
 11 13  1  0  0  0  0
 11 35  1  0  0  0  0
 11 36  1  0  0  0  0
 12 14  1  0  0  0  0
 12 33  1  0  0  0  0
 12 34  1  0  0  0  0
 13 39  1  0  0  0  0
 13 40  1  0  0  0  0
 14 37  1  0  0  0  0
 14 38  1  0  0  0  0
 15 17  1  0  0  0  0
 15 41  1  0  0  0  0
 15 42  1  0  0  0  0
 16 18  1  0  0  0  0
 17 19  1  0  0  0  0
 17 20  2  0  0  0  0
 18 21  2  0  0  0  0
 19 22  2  0  0  0  0
 20 24  1  0  0  0  0
 20 43  1  0  0  0  0
 21 26  1  0  0  0  0
 21 44  1  0  0  0  0
 22 27  1  0  0  0  0
 22 45  1  0  0  0  0
 23 25  1  0  0  0  0
 23 28  2  0  0  0  0
 24 27  2  0  0  0  0
 24 46  1  0  0  0  0
 25 26  1  0  0  0  0
 25 29  2  0  0  0  0
 27 47  1  0  0  0  0
 28 30  1  0  0  0  0
 28 48  1  0  0  0  0
 29 31  1  0  0  0  0
 30 31  2  0  0  0  0
 31 49  1  0  0  0  0
 32 51  1  0  0  0  0
 32 52  1  0  0  0  0
 32 53  1  0  0  0  0
M  CHG  2   5  -1  10   1
M  END
> <PUBCHEM_COMPOUND_CID>
127040369

> <PUBCHEM_CONFORMER_RMSD>
1

> <PUBCHEM_CONFORMER_DIVERSEORDER>
1
17
71
66
111
49
100
128
98
96
101
60
55
122
44
93
81
43
77
103
74
53
126
48
54
107
80
75
32
21
116
42
72
117
24
82
51
19
119
84
106
37
110
25
27
36
121
95
63
104
114
89
99
102
83
118
33
113
35
94
120
50
59
85
129
16
112
90
124
45
68
105
88
67
69
39
97
109
4
115
76
57
34
14
38
64
15
46
91
127
23
28
40
87
61
11
92
18
12
86
73
79
58
20
41
52
56
62
70
22
2
65
108
29
6
9
31
5
123
8
47
10
26
13
125
7
3
30
78

> <PUBCHEM_MMFF94_PARTIAL_CHARGES>
40
1 -0.16
10 0.91
11 0.27
12 0.27
13 0.3
14 0.3
15 0.41
16 0.62
17 -0.14
18 0.09
19 0.13
2 -0.57
20 -0.15
21 -0.14
22 -0.15
23 0.08
24 -0.15
25 0.09
26 0.47
27 -0.15
28 -0.15
29 0.08
3 -0.57
30 0.08
31 -0.15
32 0.28
4 -0.53
43 0.15
44 0.15
45 0.15
46 0.15
47 0.15
48 0.15
49 0.15
5 -0.52
50 0.45
6 -0.52
7 -0.36
8 -0.81
9 -0.66

> <PUBCHEM_EFFECTIVE_ROTOR_COUNT>
7.2

> <PUBCHEM_PHARMACOPHORE_FEATURES>
13
1 1 acceptor
1 2 acceptor
1 3 acceptor
1 4 donor
1 5 acceptor
1 5 anion
1 6 acceptor
1 7 acceptor
1 8 cation
6 1 18 21 23 25 26 rings
6 17 19 20 22 24 27 rings
6 23 25 28 29 30 31 rings
6 8 9 11 12 13 14 rings

> <PUBCHEM_HEAVY_ATOM_COUNT>
32

> <PUBCHEM_ATOM_DEF_STEREO_COUNT>
0

> <PUBCHEM_ATOM_UDEF_STEREO_COUNT>
0

> <PUBCHEM_BOND_DEF_STEREO_COUNT>
0

> <PUBCHEM_BOND_UDEF_STEREO_COUNT>
0

> <PUBCHEM_ISOTOPIC_ATOM_COUNT>
0

> <PUBCHEM_COMPONENT_COUNT>
1

> <PUBCHEM_CACTVS_TAUTO_COUNT>
5

> <PUBCHEM_CONFORMER_ID>
07927B7100000001

> <PUBCHEM_MMFF94_ENERGY>
105.5179

> <PUBCHEM_FEATURE_SELFOVERLAP>
66.084

> <PUBCHEM_SHAPE_FINGERPRINT>
10299344 5 18410296917481092773
10622 236 18193268586435334242
11101153 10 9151172056900353595
11135609 99 18341888551308025430
11524674 6 17060337436167102903
117089 54 17771922528085282070
11991303 11 13695878029902017785
12166972 35 18333453114646276372
12592606 108 17989203768364057271
13533116 47 18408885135602579464
13782708 43 18040991813387330187
14347332 77 18337669715631655796
14400156 162 18262529100834211817
14420673 8 18413951694411706775
14675020 138 18339629145323219000
14933364 13 18260550030742702213
15183329 4 18130793356445052777
15230672 131 18263637373752633435
15352257 5 18335139799917031579
15799311 1 18336840757268874047
15961568 22 9871750208929457907
16628084 112 18262518070424979627
17134984 74 18333454244771294586
19841028 212 18263360296843962130
20567600 234 8790884086225105537
208703 8 18198905812900698894
21859007 373 13829587379913380489
23516275 137 18265073357018415347
23522609 53 18127439863102988929
23559900 14 18337946887610142817
3004659 81 18409728456879155736
34797466 226 16877666776755115933
397830 11 11887658624611311445
4073 2 18115874168502461058
4098825 35 18187083935986109405
4149490 64 18113619015047169010
439807 62 18409450258756555675
44317340 157 18333449867345396220
4435113 14 18188783841577905915
46194498 28 17749105595834039356
5104073 3 17775563121993745216
5265222 85 18335424620883937759
6697151 62 17631431463335902913
7970288 3 18268423530467277906
86090 222 15051472504483437372
999808 66 18041009466620756731

> <PUBCHEM_SHAPE_MULTIPOLES>
602.52
21.43
3.57
1.31
15.67
2.61
0.03
9.34
-3.98
-4.39
0.93
-0.69
-0.34
-2.17

> <PUBCHEM_SHAPE_SELFOVERLAP>
1313.04

> <PUBCHEM_SHAPE_VOLUME>
328.1

> <PUBCHEM_COORDINATE_TYPE>
2
5
10

$$$$