127040370
  -OEChem-03242010103D

 53 56  0     0  0  0  0  0  0999 V2000
    2.8875   -0.1494    0.6918 O   0  0  0  0  0  0  0  0  0  0  0  0
    1.2111   -2.8156    1.8240 O   0  0  0  0  0  0  0  0  0  0  0  0
    5.4094   -2.7875   -1.1271 O   0  0  0  0  0  0  0  0  0  0  0  0
    7.1903   -0.8527   -1.4305 O   0  0  0  0  0  0  0  0  0  0  0  0
    5.9728    3.4305    0.2212 O   0  0  0  0  0  0  0  0  0  0  0  0
   -9.0302   -0.2616   -1.6295 O   0  5  0  0  0  0  0  0  0  0  0  0
   -9.2875   -0.2890    0.5504 O   0  0  0  0  0  0  0  0  0  0  0  0
   -2.2027    0.3342   -0.0338 N   0  0  0  0  0  0  0  0  0  0  0  0
    0.1130   -1.2973    0.4450 N   0  0  0  0  0  0  0  0  0  0  0  0
   -8.5782   -0.1095   -0.4690 N   0  3  0  0  0  0  0  0  0  0  0  0
   -2.1321   -0.5269    1.1544 C   0  0  0  0  0  0  0  0  0  0  0  0
   -0.8640    0.8293   -0.3805 C   0  0  0  0  0  0  0  0  0  0  0  0
    0.1019   -0.3261   -0.6565 C   0  0  0  0  0  0  0  0  0  0  0  0
   -1.2133   -1.7192    0.8974 C   0  0  0  0  0  0  0  0  0  0  0  0
   -3.1200    1.4500    0.1944 C   0  0  0  0  0  0  0  0  0  0  0  0
    1.2392   -1.9180    0.9801 C   0  0  0  0  0  0  0  0  0  0  0  0
   -4.5576    1.0386    0.0193 C   0  0  0  0  0  0  0  0  0  0  0  0
    2.5628   -1.4753    0.4970 C   0  0  0  0  0  0  0  0  0  0  0  0
   -5.0824    0.8629   -1.2612 C   0  0  0  0  0  0  0  0  0  0  0  0
   -5.3651    0.8334    1.1381 C   0  0  0  0  0  0  0  0  0  0  0  0
    3.3418   -2.3915   -0.0906 C   0  0  0  0  0  0  0  0  0  0  0  0
    4.1137    0.2813    0.2494 C   0  0  0  0  0  0  0  0  0  0  0  0
   -6.4145    0.4824   -1.4230 C   0  0  0  0  0  0  0  0  0  0  0  0
   -6.6973    0.4529    0.9764 C   0  0  0  0  0  0  0  0  0  0  0  0
    5.0287   -0.5629   -0.3808 C   0  0  0  0  0  0  0  0  0  0  0  0
    4.6712   -1.9774   -0.5838 C   0  0  0  0  0  0  0  0  0  0  0  0
   -7.2219    0.2774   -0.3041 C   0  0  0  0  0  0  0  0  0  0  0  0
    4.4293    1.6248    0.4528 C   0  0  0  0  0  0  0  0  0  0  0  0
    6.2631   -0.0704   -0.8109 C   0  0  0  0  0  0  0  0  0  0  0  0
    5.6615    2.1197    0.0244 C   0  0  0  0  0  0  0  0  0  0  0  0
    6.5758    1.2740   -0.6058 C   0  0  0  0  0  0  0  0  0  0  0  0
    4.9933    4.2393    0.8709 C   0  0  0  0  0  0  0  0  0  0  0  0
   -3.1202   -0.9232    1.4116 H   0  0  0  0  0  0  0  0  0  0  0  0
   -1.7652    0.0365    2.0229 H   0  0  0  0  0  0  0  0  0  0  0  0
   -0.9139    1.4514   -1.2823 H   0  0  0  0  0  0  0  0  0  0  0  0
   -0.4629    1.4536    0.4291 H   0  0  0  0  0  0  0  0  0  0  0  0
   -1.1366   -2.3256    1.8059 H   0  0  0  0  0  0  0  0  0  0  0  0
   -1.6302   -2.3625    0.1124 H   0  0  0  0  0  0  0  0  0  0  0  0
   -0.2223   -0.8763   -1.5492 H   0  0  0  0  0  0  0  0  0  0  0  0
    1.0942    0.0664   -0.8791 H   0  0  0  0  0  0  0  0  0  0  0  0
   -2.9373    2.2507   -0.5365 H   0  0  0  0  0  0  0  0  0  0  0  0
   -2.9590    1.9189    1.1749 H   0  0  0  0  0  0  0  0  0  0  0  0
   -4.4629    1.0197   -2.1404 H   0  0  0  0  0  0  0  0  0  0  0  0
   -4.9686    0.9667    2.1412 H   0  0  0  0  0  0  0  0  0  0  0  0
    3.0453   -3.4252   -0.2264 H   0  0  0  0  0  0  0  0  0  0  0  0
   -6.7890    0.3549   -2.4354 H   0  0  0  0  0  0  0  0  0  0  0  0
   -7.2966    0.3021    1.8706 H   0  0  0  0  0  0  0  0  0  0  0  0
    3.6792    2.2330    0.9474 H   0  0  0  0  0  0  0  0  0  0  0  0
    7.5345    1.6659   -0.9374 H   0  0  0  0  0  0  0  0  0  0  0  0
    6.8636   -1.7616   -1.5166 H   0  0  0  0  0  0  0  0  0  0  0  0
    5.4068    5.2505    0.9445 H   0  0  0  0  0  0  0  0  0  0  0  0
    4.8029    3.8973    1.8939 H   0  0  0  0  0  0  0  0  0  0  0  0
    4.0746    4.3126    0.2791 H   0  0  0  0  0  0  0  0  0  0  0  0
  1 18  1  0  0  0  0
  1 22  1  0  0  0  0
  2 16  2  0  0  0  0
  3 26  2  0  0  0  0
  4 29  1  0  0  0  0
  4 50  1  0  0  0  0
  5 30  1  0  0  0  0
  5 32  1  0  0  0  0
  6 10  1  0  0  0  0
  7 10  2  0  0  0  0
  8 11  1  0  0  0  0
  8 12  1  0  0  0  0
  8 15  1  0  0  0  0
  9 13  1  0  0  0  0
  9 14  1  0  0  0  0
  9 16  1  0  0  0  0
 10 27  1  0  0  0  0
 11 14  1  0  0  0  0
 11 33  1  0  0  0  0
 11 34  1  0  0  0  0
 12 13  1  0  0  0  0
 12 35  1  0  0  0  0
 12 36  1  0  0  0  0
 13 39  1  0  0  0  0
 13 40  1  0  0  0  0
 14 37  1  0  0  0  0
 14 38  1  0  0  0  0
 15 17  1  0  0  0  0
 15 41  1  0  0  0  0
 15 42  1  0  0  0  0
 16 18  1  0  0  0  0
 17 19  2  0  0  0  0
 17 20  1  0  0  0  0
 18 21  2  0  0  0  0
 19 23  1  0  0  0  0
 19 43  1  0  0  0  0
 20 24  2  0  0  0  0
 20 44  1  0  0  0  0
 21 26  1  0  0  0  0
 21 45  1  0  0  0  0
 22 25  1  0  0  0  0
 22 28  2  0  0  0  0
 23 27  2  0  0  0  0
 23 46  1  0  0  0  0
 24 27  1  0  0  0  0
 24 47  1  0  0  0  0
 25 26  1  0  0  0  0
 25 29  2  0  0  0  0
 28 30  1  0  0  0  0
 28 48  1  0  0  0  0
 29 31  1  0  0  0  0
 30 31  2  0  0  0  0
 31 49  1  0  0  0  0
 32 51  1  0  0  0  0
 32 52  1  0  0  0  0
 32 53  1  0  0  0  0
M  CHG  2   6  -1  10   1
M  END
> <PUBCHEM_COMPOUND_CID>
127040370

> <PUBCHEM_CONFORMER_RMSD>
1

> <PUBCHEM_CONFORMER_DIVERSEORDER>
2
59
65
56
41
21
43
22
49
12
23
67
39
28
40
24
42
60
10
69
61
5
68
64
11
8
20
33
62
71
31
32
36
34
66
50
48
27
47
19
4
58
63
57
37
38
44
7
9
29
53
70
45
35
18
55
13
52
1
16
17
30
15
51
46
14
54
3
26
25
6

> <PUBCHEM_MMFF94_PARTIAL_CHARGES>
40
1 -0.16
10 0.91
11 0.27
12 0.27
13 0.3
14 0.3
15 0.41
16 0.62
17 -0.14
18 0.09
19 -0.15
2 -0.57
20 -0.15
21 -0.14
22 0.08
23 -0.15
24 -0.15
25 0.09
26 0.47
27 0.13
28 -0.15
29 0.08
3 -0.57
30 0.08
31 -0.15
32 0.28
4 -0.53
43 0.15
44 0.15
45 0.15
46 0.15
47 0.15
48 0.15
49 0.15
5 -0.36
50 0.45
6 -0.52
7 -0.52
8 -0.81
9 -0.66

> <PUBCHEM_EFFECTIVE_ROTOR_COUNT>
7.2

> <PUBCHEM_PHARMACOPHORE_FEATURES>
13
1 1 acceptor
1 2 acceptor
1 3 acceptor
1 4 donor
1 5 acceptor
1 6 acceptor
1 6 anion
1 7 acceptor
1 8 cation
6 1 18 21 22 25 26 rings
6 17 19 20 23 24 27 rings
6 22 25 28 29 30 31 rings
6 8 9 11 12 13 14 rings

> <PUBCHEM_HEAVY_ATOM_COUNT>
32

> <PUBCHEM_ATOM_DEF_STEREO_COUNT>
0

> <PUBCHEM_ATOM_UDEF_STEREO_COUNT>
0

> <PUBCHEM_BOND_DEF_STEREO_COUNT>
0

> <PUBCHEM_BOND_UDEF_STEREO_COUNT>
0

> <PUBCHEM_ISOTOPIC_ATOM_COUNT>
0

> <PUBCHEM_COMPONENT_COUNT>
1

> <PUBCHEM_CACTVS_TAUTO_COUNT>
5

> <PUBCHEM_CONFORMER_ID>
07927B7200000002

> <PUBCHEM_MMFF94_ENERGY>
102.5081

> <PUBCHEM_FEATURE_SELFOVERLAP>
66.085

> <PUBCHEM_SHAPE_FINGERPRINT>
10 15 17240483623757107953
10165383 225 17967820444989759278
10299344 5 17632577133118912415
10391435 84 18041279954970988179
10411042 1 17980204090030360510
10638233 991 18273215283365423497
10917259 128 14346614044584429583
11101153 10 18341897364201329721
11135609 127 18059288885934634040
11181472 205 18054505808727663393
12144603 126 18201722826590083665
12373685 5 13623533480888605465
12730499 353 18334019354856057962
13617811 41 17821734931249170124
14068700 686 17823127931172134277
14444916 359 14548738422480713205
1454969 45 18342173354815357527
14856354 85 16845569821497566517
150020 25 18333452032715366039
15003188 100 18409168805513319772
15183329 4 17918275333485616151
1754911 235 18411697678347353077
18365409 1 18261396719263809927
20157964 124 18413389830683837958
20554085 129 16298383565603470273
21049683 118 17676478489153702858
21150785 3 18273214188475602623
21360443 126 17894635889096316186
21521721 280 18410013230733596011
221357 26 18341616967498124212
23522609 53 17489045794165241097
2747138 104 17895489067929400937
335352 9 18410300186568760558
34797466 226 18272936003106152807
3552219 110 18060146436369245065
437795 51 18408321107491236017
439807 62 12895079500862315140
44317340 157 18342738542014255766
4625314 4 18341895160972140959
4760202 70 18199457956795180925
53794403 172 18041851739181955804
57634706 280 18114459045524377554
58902169 19 17846778494931206772
636783 132 18269813420955889245

> <PUBCHEM_SHAPE_MULTIPOLES>
602.52
25.94
3.09
1.27
41.74
1.65
0.05
7.52
7.62
-8.44
-0.88
0.87
-0.3
1.37

> <PUBCHEM_SHAPE_SELFOVERLAP>
1312.504

> <PUBCHEM_SHAPE_VOLUME>
328.2

> <PUBCHEM_COORDINATE_TYPE>
2
5
10

$$$$