64718
  -OEChem-03242010103D

 71 72  0     1  0  0  0  0  0999 V2000
    2.5031   -0.2757    0.1827 O   0  0  0  0  0  0  0  0  0  0  0  0
   -1.4316   -3.1127   -0.2738 O   0  0  0  0  0  0  0  0  0  0  0  0
    3.5007   -1.4308    1.9036 O   0  0  0  0  0  0  0  0  0  0  0  0
   -5.2334   -1.2974   -1.0933 O   0  0  0  0  0  0  0  0  0  0  0  0
   -7.6933    0.0459    1.4835 O   0  0  0  0  0  0  0  0  0  0  0  0
   -6.3982    1.2600    0.0645 O   0  0  0  0  0  0  0  0  0  0  0  0
    0.9603    1.6028    0.3997 C   0  0  1  0  0  0  0  0  0  0  0  0
    0.0212    0.9624   -0.6654 C   0  0  2  0  0  0  0  0  0  0  0  0
    1.8562    0.5725    1.1260 C   0  0  2  0  0  0  0  0  0  0  0  0
   -0.8712    2.0385   -1.3505 C   0  0  2  0  0  0  0  0  0  0  0  0
    1.7811    2.7335   -0.2136 C   0  0  0  0  0  0  0  0  0  0  0  0
   -0.8157   -0.1926   -0.1042 C   0  0  0  0  0  0  0  0  0  0  0  0
    2.8917    1.2666    2.0154 C   0  0  0  0  0  0  0  0  0  0  0  0
    3.7831    2.2623    1.2532 C   0  0  2  0  0  0  0  0  0  0  0  0
    3.0375    3.0102    0.1798 C   0  0  0  0  0  0  0  0  0  0  0  0
   -0.0535    3.2340   -1.7661 C   0  0  0  0  0  0  0  0  0  0  0  0
    1.1498    3.5246   -1.2548 C   0  0  0  0  0  0  0  0  0  0  0  0
   -1.5728   -0.9102   -1.2208 C   0  0  0  0  0  0  0  0  0  0  0  0
   -2.0569    2.5144   -0.5051 C   0  0  0  0  0  0  0  0  0  0  0  0
    5.0214    1.5890    0.6553 C   0  0  0  0  0  0  0  0  0  0  0  0
   -2.3634   -2.1359   -0.7440 C   0  0  2  0  0  0  0  0  0  0  0  0
    3.3094   -1.2512    0.7067 C   0  0  0  0  0  0  0  0  0  0  0  0
   -3.3908   -1.8673    0.3669 C   0  0  0  0  0  0  0  0  0  0  0  0
    3.9496   -2.0885   -0.4083 C   0  0  0  0  0  0  0  0  0  0  0  0
   -4.4711   -0.8357    0.0200 C   0  0  2  0  0  0  0  0  0  0  0  0
    3.5490   -3.5789   -0.2788 C   0  0  0  0  0  0  0  0  0  0  0  0
    3.4564   -1.5455   -1.7620 C   0  0  0  0  0  0  0  0  0  0  0  0
    5.4795   -1.9277   -0.3571 C   0  0  0  0  0  0  0  0  0  0  0  0
   -5.4243   -0.6388    1.1990 C   0  0  0  0  0  0  0  0  0  0  0  0
    2.0550   -3.8566   -0.4072 C   0  0  0  0  0  0  0  0  0  0  0  0
   -6.5289    0.3289    0.8485 C   0  0  0  0  0  0  0  0  0  0  0  0
    0.3286    2.0679    1.1711 H   0  0  0  0  0  0  0  0  0  0  0  0
    0.6679    0.5436   -1.4526 H   0  0  0  0  0  0  0  0  0  0  0  0
    1.2230   -0.0496    1.7712 H   0  0  0  0  0  0  0  0  0  0  0  0
   -1.2699    1.6115   -2.2793 H   0  0  0  0  0  0  0  0  0  0  0  0
   -0.1618   -0.9314    0.3694 H   0  0  0  0  0  0  0  0  0  0  0  0
   -1.4908    0.1635    0.6798 H   0  0  0  0  0  0  0  0  0  0  0  0
    2.3235    1.8471    2.7583 H   0  0  0  0  0  0  0  0  0  0  0  0
    3.5148    0.6085    2.6221 H   0  0  0  0  0  0  0  0  0  0  0  0
    4.1400    2.9981    1.9862 H   0  0  0  0  0  0  0  0  0  0  0  0
    3.5817    3.8287   -0.2885 H   0  0  0  0  0  0  0  0  0  0  0  0
   -0.4698    3.8847   -2.5311 H   0  0  0  0  0  0  0  0  0  0  0  0
    1.6809    4.3944   -1.6321 H   0  0  0  0  0  0  0  0  0  0  0  0
   -0.8480   -1.2379   -1.9776 H   0  0  0  0  0  0  0  0  0  0  0  0
   -2.2689   -0.2332   -1.7237 H   0  0  0  0  0  0  0  0  0  0  0  0
   -2.6120    3.3034   -1.0265 H   0  0  0  0  0  0  0  0  0  0  0  0
   -1.7312    2.9265    0.4559 H   0  0  0  0  0  0  0  0  0  0  0  0
   -2.7665    1.7165   -0.3040 H   0  0  0  0  0  0  0  0  0  0  0  0
    5.7618    2.3455    0.3692 H   0  0  0  0  0  0  0  0  0  0  0  0
    4.7757    1.0326   -0.2516 H   0  0  0  0  0  0  0  0  0  0  0  0
    5.5014    0.9170    1.3734 H   0  0  0  0  0  0  0  0  0  0  0  0
   -2.8746   -2.5832   -1.6043 H   0  0  0  0  0  0  0  0  0  0  0  0
   -2.8719   -1.5757    1.2886 H   0  0  0  0  0  0  0  0  0  0  0  0
   -3.8715   -2.8276    0.6007 H   0  0  0  0  0  0  0  0  0  0  0  0
   -4.0339    0.1218   -0.2567 H   0  0  0  0  0  0  0  0  0  0  0  0
    4.0779   -4.1727   -1.0350 H   0  0  0  0  0  0  0  0  0  0  0  0
    3.8809   -3.9540    0.6980 H   0  0  0  0  0  0  0  0  0  0  0  0
   -0.8381   -3.3316   -1.0122 H   0  0  0  0  0  0  0  0  0  0  0  0
    3.8531   -2.1523   -2.5850 H   0  0  0  0  0  0  0  0  0  0  0  0
    2.3652   -1.5478   -1.8597 H   0  0  0  0  0  0  0  0  0  0  0  0
    3.7972   -0.5177   -1.9377 H   0  0  0  0  0  0  0  0  0  0  0  0
    5.7926   -0.8948   -0.5257 H   0  0  0  0  0  0  0  0  0  0  0  0
    5.9650   -2.5466   -1.1200 H   0  0  0  0  0  0  0  0  0  0  0  0
    5.8717   -2.2325    0.6197 H   0  0  0  0  0  0  0  0  0  0  0  0
   -4.8969   -0.2587    2.0796 H   0  0  0  0  0  0  0  0  0  0  0  0
   -5.8913   -1.5987    1.4519 H   0  0  0  0  0  0  0  0  0  0  0  0
    1.4730   -3.2649    0.3054 H   0  0  0  0  0  0  0  0  0  0  0  0
    1.6891   -3.6499   -1.4168 H   0  0  0  0  0  0  0  0  0  0  0  0
    1.8564   -4.9137   -0.2014 H   0  0  0  0  0  0  0  0  0  0  0  0
   -4.6627   -1.2588   -1.8791 H   0  0  0  0  0  0  0  0  0  0  0  0
   -8.4050    0.6761    1.2415 H   0  0  0  0  0  0  0  0  0  0  0  0
  1  9  1  0  0  0  0
  1 22  1  0  0  0  0
  2 21  1  0  0  0  0
  2 58  1  0  0  0  0
  3 22  2  0  0  0  0
  4 25  1  0  0  0  0
  4 70  1  0  0  0  0
  5 31  1  0  0  0  0
  5 71  1  0  0  0  0
  6 31  2  0  0  0  0
  7  8  1  0  0  0  0
  7  9  1  0  0  0  0
  7 11  1  0  0  0  0
  7 32  1  0  0  0  0
  8 10  1  0  0  0  0
  8 12  1  0  0  0  0
  8 33  1  0  0  0  0
  9 13  1  0  0  0  0
  9 34  1  0  0  0  0
 10 16  1  0  0  0  0
 10 19  1  0  0  0  0
 10 35  1  0  0  0  0
 11 15  2  0  0  0  0
 11 17  1  0  0  0  0
 12 18  1  0  0  0  0
 12 36  1  0  0  0  0
 12 37  1  0  0  0  0
 13 14  1  0  0  0  0
 13 38  1  0  0  0  0
 13 39  1  0  0  0  0
 14 15  1  0  0  0  0
 14 20  1  0  0  0  0
 14 40  1  0  0  0  0
 15 41  1  0  0  0  0
 16 17  2  0  0  0  0
 16 42  1  0  0  0  0
 17 43  1  0  0  0  0
 18 21  1  0  0  0  0
 18 44  1  0  0  0  0
 18 45  1  0  0  0  0
 19 46  1  0  0  0  0
 19 47  1  0  0  0  0
 19 48  1  0  0  0  0
 20 49  1  0  0  0  0
 20 50  1  0  0  0  0
 20 51  1  0  0  0  0
 21 23  1  0  0  0  0
 21 52  1  0  0  0  0
 22 24  1  0  0  0  0
 23 25  1  0  0  0  0
 23 53  1  0  0  0  0
 23 54  1  0  0  0  0
 24 26  1  0  0  0  0
 24 27  1  0  0  0  0
 24 28  1  0  0  0  0
 25 29  1  0  0  0  0
 25 55  1  0  0  0  0
 26 30  1  0  0  0  0
 26 56  1  0  0  0  0
 26 57  1  0  0  0  0
 27 59  1  0  0  0  0
 27 60  1  0  0  0  0
 27 61  1  0  0  0  0
 28 62  1  0  0  0  0
 28 63  1  0  0  0  0
 28 64  1  0  0  0  0
 29 31  1  0  0  0  0
 29 65  1  0  0  0  0
 29 66  1  0  0  0  0
 30 67  1  0  0  0  0
 30 68  1  0  0  0  0
 30 69  1  0  0  0  0
M  END
> <PUBCHEM_COMPOUND_CID>
64718

> <PUBCHEM_CONFORMER_RMSD>
1.2

> <PUBCHEM_CONFORMER_DIVERSEORDER>
1
64
19
61
66
12
24
54
30
62
57
42
65
48
25
26
47
33
34
27
38
21
52
41
40
28
8
60
53
56
50
43
59
16
18
35
63
6
15
49
5
51
7
32
29
20
46
55
39
31
58
22
37
13
45
3
14
4
23
36
17
9
11
2
44
10

> <PUBCHEM_MMFF94_PARTIAL_CHARGES>
26
1 -0.43
10 0.14
11 -0.14
14 0.14
15 -0.29
16 -0.29
17 -0.15
2 -0.68
21 0.28
22 0.66
24 0.06
25 0.28
29 0.06
3 -0.57
31 0.66
4 -0.68
41 0.15
42 0.15
43 0.15
5 -0.65
58 0.4
6 -0.57
7 0.14
70 0.4
71 0.5
9 0.28

> <PUBCHEM_EFFECTIVE_ROTOR_COUNT>
12

> <PUBCHEM_PHARMACOPHORE_FEATURES>
12
1 2 acceptor
1 2 donor
1 3 acceptor
1 30 hydrophobe
1 4 acceptor
1 4 donor
1 5 acceptor
1 6 acceptor
3 24 27 28 hydrophobe
3 5 6 31 anion
6 7 8 10 11 16 17 rings
6 7 9 11 13 14 15 rings

> <PUBCHEM_HEAVY_ATOM_COUNT>
31

> <PUBCHEM_ATOM_DEF_STEREO_COUNT>
7

> <PUBCHEM_ATOM_UDEF_STEREO_COUNT>
0

> <PUBCHEM_BOND_DEF_STEREO_COUNT>
0

> <PUBCHEM_BOND_UDEF_STEREO_COUNT>
0

> <PUBCHEM_ISOTOPIC_ATOM_COUNT>
0

> <PUBCHEM_COMPONENT_COUNT>
1

> <PUBCHEM_CACTVS_TAUTO_COUNT>
1

> <PUBCHEM_CONFORMER_ID>
0000FCCE00000001

> <PUBCHEM_MMFF94_ENERGY>
64.4788

> <PUBCHEM_FEATURE_SELFOVERLAP>
60.973

> <PUBCHEM_SHAPE_FINGERPRINT>
10906281 52 17824546498593189608
11135609 12 18333723611924117392
12107183 9 18271811181711101979
12422481 6 18341613677574469605
12553582 1 18335972108654854894
12778500 126 17775013396350096848
12788726 201 17968941864380880066
13140716 1 18193536914485522648
13533116 47 18131914849546346283
14020679 6 18040725779272327579
14790565 3 17833551580139156668
14863182 85 18263080067349283540
15064986 96 17917445249314564791
15081414 286 18334291011073215261
15420108 30 17917142935056144918
15664445 248 18189626110534441836
16112460 7 18341341015543648553
17818456 19 18059863857121071953
1813 80 17385436648520803373
19026451 147 11314296261519666118
1979834 28 18266171919267643800
20739085 24 18336266829030605196
20775530 9 18339069381607744398
21421861 104 18261947539854131568
22182313 1 18261935393428350773
23559900 14 18411981390152600979
3493558 16 17056409799916954235
350125 39 18341896264172041816
394071 54 18410011057052889091
4144715 1 18187657933686692395
44317340 157 9150904892849157535
460360 51 18041267816808042285
563151 74 17059188454551850592
57527585 103 16044236636816190366
59755656 215 18341612668083055588

> <PUBCHEM_SHAPE_MULTIPOLES>
602.75
13.36
4.82
1.57
24.67
0.39
0.13
4.13
5.23
-4.81
-1.6
-0.33
-0.51
1.06

> <PUBCHEM_SHAPE_SELFOVERLAP>
1224.338

> <PUBCHEM_SHAPE_VOLUME>
346.8

> <PUBCHEM_COORDINATE_TYPE>
2
5
10

$$$$