127042801
  -OEChem-03242010103D

 50 53  0     0  0  0  0  0  0999 V2000
    2.5143    0.7610   -0.1672 O   0  0  0  0  0  0  0  0  0  0  0  0
    5.3160   -2.1032    0.5463 O   0  0  0  0  0  0  0  0  0  0  0  0
    7.2273   -0.2918    0.2503 O   0  0  0  0  0  0  0  0  0  0  0  0
   -8.4234    0.2178    1.7348 O   0  5  0  0  0  0  0  0  0  0  0  0
   -8.1565    2.1291    0.6883 O   0  0  0  0  0  0  0  0  0  0  0  0
   -1.9304   -1.0958   -0.6387 N   0  0  0  0  0  0  0  0  0  0  0  0
    0.8094   -0.7908    0.0852 N   0  0  0  0  0  0  0  0  0  0  0  0
   -7.7878    0.9576    0.9453 N   0  3  0  0  0  0  0  0  0  0  0  0
   -0.9247   -2.0702   -1.0865 C   0  0  0  0  0  0  0  0  0  0  0  0
   -1.3307    0.2415   -0.5250 C   0  0  0  0  0  0  0  0  0  0  0  0
    0.2519   -2.1285   -0.1103 C   0  0  0  0  0  0  0  0  0  0  0  0
   -0.1629    0.2340    0.4635 C   0  0  0  0  0  0  0  0  0  0  0  0
   -3.0677   -1.0724   -1.5577 C   0  0  0  0  0  0  0  0  0  0  0  0
    2.1536   -0.5563    0.0921 C   0  0  0  0  0  0  0  0  0  0  0  0
   -4.3109   -0.5378   -0.8976 C   0  0  0  0  0  0  0  0  0  0  0  0
    3.0522   -1.5258    0.3316 C   0  0  0  0  0  0  0  0  0  0  0  0
    3.8442    1.0969   -0.1814 C   0  0  0  0  0  0  0  0  0  0  0  0
   -5.0338   -1.3415   -0.0160 C   0  0  0  0  0  0  0  0  0  0  0  0
   -4.7399    0.7615   -1.1683 C   0  0  0  0  0  0  0  0  0  0  0  0
    4.8609    0.1741    0.0537 C   0  0  0  0  0  0  0  0  0  0  0  0
    4.4960   -1.2221    0.3289 C   0  0  0  0  0  0  0  0  0  0  0  0
   -6.1857   -0.8459    0.5947 C   0  0  0  0  0  0  0  0  0  0  0  0
   -5.8918    1.2572   -0.5577 C   0  0  0  0  0  0  0  0  0  0  0  0
    6.1993    0.5729    0.0266 C   0  0  0  0  0  0  0  0  0  0  0  0
    4.1613    2.4296   -0.4459 C   0  0  0  0  0  0  0  0  0  0  0  0
   -6.6147    0.4535    0.3239 C   0  0  0  0  0  0  0  0  0  0  0  0
    6.5134    1.9064   -0.2385 C   0  0  0  0  0  0  0  0  0  0  0  0
    5.4967    2.8330   -0.4742 C   0  0  0  0  0  0  0  0  0  0  0  0
    7.6645   -0.4439    1.5997 C   0  0  0  0  0  0  0  0  0  0  0  0
   -1.3697   -3.0711   -1.1429 H   0  0  0  0  0  0  0  0  0  0  0  0
   -0.9774    0.5942   -1.5034 H   0  0  0  0  0  0  0  0  0  0  0  0
   -2.0645    0.9679   -0.1591 H   0  0  0  0  0  0  0  0  0  0  0  0
   -0.5605   -1.8139   -2.0906 H   0  0  0  0  0  0  0  0  0  0  0  0
   -0.0711   -2.5338    0.8567 H   0  0  0  0  0  0  0  0  0  0  0  0
    0.2740    1.2386    0.4962 H   0  0  0  0  0  0  0  0  0  0  0  0
   -0.5289    0.0198    1.4760 H   0  0  0  0  0  0  0  0  0  0  0  0
    0.9761   -2.8319   -0.5361 H   0  0  0  0  0  0  0  0  0  0  0  0
   -3.3103   -2.0913   -1.8919 H   0  0  0  0  0  0  0  0  0  0  0  0
   -2.8391   -0.5189   -2.4787 H   0  0  0  0  0  0  0  0  0  0  0  0
    2.7864   -2.5508    0.5622 H   0  0  0  0  0  0  0  0  0  0  0  0
   -4.7093   -2.3555    0.2028 H   0  0  0  0  0  0  0  0  0  0  0  0
   -4.1857    1.3980   -1.8530 H   0  0  0  0  0  0  0  0  0  0  0  0
   -6.7235   -1.5004    1.2758 H   0  0  0  0  0  0  0  0  0  0  0  0
   -6.1961    2.2740   -0.7923 H   0  0  0  0  0  0  0  0  0  0  0  0
    3.3762    3.1577   -0.6306 H   0  0  0  0  0  0  0  0  0  0  0  0
    7.5498    2.2329   -0.2640 H   0  0  0  0  0  0  0  0  0  0  0  0
    5.7456    3.8701   -0.6801 H   0  0  0  0  0  0  0  0  0  0  0  0
    8.3397   -1.3026    1.6464 H   0  0  0  0  0  0  0  0  0  0  0  0
    6.8228   -0.6218    2.2767 H   0  0  0  0  0  0  0  0  0  0  0  0
    8.2119    0.4493    1.9166 H   0  0  0  0  0  0  0  0  0  0  0  0
  1 14  1  0  0  0  0
  1 17  1  0  0  0  0
  2 21  2  0  0  0  0
  3 24  1  0  0  0  0
  3 29  1  0  0  0  0
  4  8  1  0  0  0  0
  5  8  2  0  0  0  0
  6  9  1  0  0  0  0
  6 10  1  0  0  0  0
  6 13  1  0  0  0  0
  7 11  1  0  0  0  0
  7 12  1  0  0  0  0
  7 14  1  0  0  0  0
  8 26  1  0  0  0  0
  9 11  1  0  0  0  0
  9 30  1  0  0  0  0
  9 33  1  0  0  0  0
 10 12  1  0  0  0  0
 10 31  1  0  0  0  0
 10 32  1  0  0  0  0
 11 34  1  0  0  0  0
 11 37  1  0  0  0  0
 12 35  1  0  0  0  0
 12 36  1  0  0  0  0
 13 15  1  0  0  0  0
 13 38  1  0  0  0  0
 13 39  1  0  0  0  0
 14 16  2  0  0  0  0
 15 18  2  0  0  0  0
 15 19  1  0  0  0  0
 16 21  1  0  0  0  0
 16 40  1  0  0  0  0
 17 20  2  0  0  0  0
 17 25  1  0  0  0  0
 18 22  1  0  0  0  0
 18 41  1  0  0  0  0
 19 23  2  0  0  0  0
 19 42  1  0  0  0  0
 20 21  1  0  0  0  0
 20 24  1  0  0  0  0
 22 26  2  0  0  0  0
 22 43  1  0  0  0  0
 23 26  1  0  0  0  0
 23 44  1  0  0  0  0
 24 27  2  0  0  0  0
 25 28  2  0  0  0  0
 25 45  1  0  0  0  0
 27 28  1  0  0  0  0
 27 46  1  0  0  0  0
 28 47  1  0  0  0  0
 29 48  1  0  0  0  0
 29 49  1  0  0  0  0
 29 50  1  0  0  0  0
M  CHG  2   4  -1   8   1
M  END
> <PUBCHEM_COMPOUND_CID>
127042801

> <PUBCHEM_CONFORMER_RMSD>
0.8

> <PUBCHEM_CONFORMER_DIVERSEORDER>
1
15
23
22
41
40
14
21
33
2
17
31
26
10
24
18
34
6
44
30
12
9
3
13
11
4
39
29
27
20
8
38
7
35
19
43
25
16
28
36
42
32
37
5

> <PUBCHEM_MMFF94_PARTIAL_CHARGES>
37
1 -0.16
10 0.27
11 0.37
12 0.37
13 0.41
14 0.18
15 -0.14
16 -0.14
17 0.08
18 -0.15
19 -0.15
2 -0.57
20 0.09
21 0.47
22 -0.15
23 -0.15
24 0.08
25 -0.15
26 0.13
27 -0.15
28 -0.15
29 0.28
3 -0.36
4 -0.52
40 0.15
41 0.15
42 0.15
43 0.15
44 0.15
45 0.15
46 0.15
47 0.15
5 -0.52
6 -0.81
7 -0.84
8 0.91
9 0.27

> <PUBCHEM_EFFECTIVE_ROTOR_COUNT>
6.2

> <PUBCHEM_PHARMACOPHORE_FEATURES>
12
1 1 acceptor
1 2 acceptor
1 3 acceptor
1 4 acceptor
1 4 anion
1 5 acceptor
1 6 cation
1 7 cation
6 1 14 16 17 20 21 rings
6 15 18 19 22 23 26 rings
6 17 20 24 25 27 28 rings
6 6 7 9 10 11 12 rings

> <PUBCHEM_HEAVY_ATOM_COUNT>
29

> <PUBCHEM_ATOM_DEF_STEREO_COUNT>
0

> <PUBCHEM_ATOM_UDEF_STEREO_COUNT>
0

> <PUBCHEM_BOND_DEF_STEREO_COUNT>
0

> <PUBCHEM_BOND_UDEF_STEREO_COUNT>
0

> <PUBCHEM_ISOTOPIC_ATOM_COUNT>
0

> <PUBCHEM_COMPONENT_COUNT>
1

> <PUBCHEM_CACTVS_TAUTO_COUNT>
1

> <PUBCHEM_CONFORMER_ID>
079284F100000001

> <PUBCHEM_MMFF94_ENERGY>
99.0047

> <PUBCHEM_FEATURE_SELFOVERLAP>
61.019

> <PUBCHEM_SHAPE_FINGERPRINT>
10 15 18334580131893098219
10299344 5 18342455967546912431
10411042 1 18047183057113345890
106641 1 13912325707466116910
11315181 36 11887952173241919175
11456790 92 18041267787091235936
12236239 1 18342453785719428414
12730499 353 17749103392605408778
12788726 201 17704078382172141200
13167372 99 18410571795224792364
13533116 47 16733249167927541682
13782708 43 13624072185329478168
14251764 18 18272086115542044687
14849402 71 18337113487882561445
14933364 13 18334012800192222997
15183329 4 18343012307076173597
15357212 105 16880214457636255396
15419008 145 18115574960408203608
15461852 350 17561358509929944373
1577012 14 18343579667976838559
15840311 113 18409452458180796893
16989713 51 16844437414889929431
20621476 66 18343584057671025591
21033648 29 18115582807339431064
21150785 3 10807934864502613723
21267235 1 18334573517791454246
21781055 127 17418101971109990066
22224240 67 17967533485118466811
22956985 138 13192273031258147432
23081809 10 18201991153669776463
23559900 14 10952043472478115239
2747138 104 16588029009057089317
3178227 256 18187362104476188754
335352 9 18335135415673002198
350125 39 18409724058948695796
3663271 9 18334295388103864939
3711267 37 17775292655646215089
397830 11 17241056529687379649
4073 2 17894915195420569298
4093350 32 18060138709079617534
4169191 19 18341612586847955189
4340502 62 17167859768594192554
504843 32 17918269879626809359
5104073 3 18042674182505954754
5718773 13 7997971259049107293
5911458 16 18202008715959997713
59755656 520 17821721771174020939
6328613 192 18343585157562318505
68570916 9 18262519320155039143
9953998 17 17676491649397298201

> <PUBCHEM_SHAPE_MULTIPOLES>
552.52
25.34
2.36
1.11
19.8
0.63
-0.09
10.5
-9.01
-2.03
0.27
1.2
-0.09
-1.86

> <PUBCHEM_SHAPE_SELFOVERLAP>
1202.844

> <PUBCHEM_SHAPE_VOLUME>
301.5

> <PUBCHEM_COORDINATE_TYPE>
2
5
10

$$$$