127042921
  -OEChem-03242010103D

 55 58  0     0  0  0  0  0  0999 V2000
    1.8510    0.3496    0.2834 O   0  0  0  0  0  0  0  0  0  0  0  0
    4.2806   -2.8262   -0.4739 O   0  0  0  0  0  0  0  0  0  0  0  0
    6.3438   -1.1796   -0.7015 O   0  0  0  0  0  0  0  0  0  0  0  0
    5.4334    3.4418   -0.0933 O   0  0  0  0  0  0  0  0  0  0  0  0
   -2.8254   -0.8950    0.3681 N   0  0  0  0  0  0  0  0  0  0  0  0
    0.0176   -1.0550    0.4935 N   0  0  0  0  0  0  0  0  0  0  0  0
   -2.0227    0.2915    0.6980 C   0  0  0  0  0  0  0  0  0  0  0  0
   -2.0838   -1.7750   -0.5470 C   0  0  0  0  0  0  0  0  0  0  0  0
   -0.6977   -0.1094    1.3496 C   0  0  0  0  0  0  0  0  0  0  0  0
   -0.7602   -2.2213    0.0772 C   0  0  0  0  0  0  0  0  0  0  0  0
   -4.1048   -0.5022   -0.2212 C   0  0  0  0  0  0  0  0  0  0  0  0
   -5.1147   -0.1258    0.8632 C   0  0  0  0  0  0  0  0  0  0  0  0
    1.3565   -0.9494    0.2526 C   0  0  0  0  0  0  0  0  0  0  0  0
   -6.4461    0.2604    0.2698 C   0  0  0  0  0  0  0  0  0  0  0  0
    2.1301   -2.0197    0.0058 C   0  0  0  0  0  0  0  0  0  0  0  0
    3.1869    0.5593    0.0535 C   0  0  0  0  0  0  0  0  0  0  0  0
    4.0811   -0.4752   -0.2118 C   0  0  0  0  0  0  0  0  0  0  0  0
    3.5740   -1.8536   -0.2487 C   0  0  0  0  0  0  0  0  0  0  0  0
   -6.7005    1.5898   -0.0674 C   0  0  0  0  0  0  0  0  0  0  0  0
   -7.4234   -0.7120    0.0581 C   0  0  0  0  0  0  0  0  0  0  0  0
    5.4322   -0.2024   -0.4383 C   0  0  0  0  0  0  0  0  0  0  0  0
    3.6402    1.8782    0.0940 C   0  0  0  0  0  0  0  0  0  0  0  0
    4.9888    2.1559   -0.1319 C   0  0  0  0  0  0  0  0  0  0  0  0
    5.8828    1.1176   -0.3972 C   0  0  0  0  0  0  0  0  0  0  0  0
   -7.9322    1.9468   -0.6163 C   0  0  0  0  0  0  0  0  0  0  0  0
   -8.6550   -0.3552   -0.4906 C   0  0  0  0  0  0  0  0  0  0  0  0
   -8.9095    0.9743   -0.8278 C   0  0  0  0  0  0  0  0  0  0  0  0
    7.0099   -1.7627    0.4171 C   0  0  0  0  0  0  0  0  0  0  0  0
    4.4671    4.4545    0.1832 C   0  0  0  0  0  0  0  0  0  0  0  0
   -1.8904   -1.2642   -1.5001 H   0  0  0  0  0  0  0  0  0  0  0  0
   -2.6744   -2.6725   -0.7679 H   0  0  0  0  0  0  0  0  0  0  0  0
   -1.8185    0.8847   -0.2037 H   0  0  0  0  0  0  0  0  0  0  0  0
   -2.5559    0.9402    1.4012 H   0  0  0  0  0  0  0  0  0  0  0  0
   -0.1183    0.7988    1.5510 H   0  0  0  0  0  0  0  0  0  0  0  0
   -0.8850   -0.5823    2.3223 H   0  0  0  0  0  0  0  0  0  0  0  0
   -0.9433   -2.8663    0.9457 H   0  0  0  0  0  0  0  0  0  0  0  0
   -0.2469   -2.8259   -0.6788 H   0  0  0  0  0  0  0  0  0  0  0  0
   -3.9827    0.3072   -0.9535 H   0  0  0  0  0  0  0  0  0  0  0  0
   -4.5310   -1.3479   -0.7790 H   0  0  0  0  0  0  0  0  0  0  0  0
   -4.7518    0.7076    1.4766 H   0  0  0  0  0  0  0  0  0  0  0  0
   -5.2563   -0.9649    1.5575 H   0  0  0  0  0  0  0  0  0  0  0  0
    1.7655   -3.0402    0.0051 H   0  0  0  0  0  0  0  0  0  0  0  0
   -5.9462    2.3560    0.0909 H   0  0  0  0  0  0  0  0  0  0  0  0
   -7.2364   -1.7512    0.3150 H   0  0  0  0  0  0  0  0  0  0  0  0
    2.8993    2.6423    0.3050 H   0  0  0  0  0  0  0  0  0  0  0  0
    6.9325    1.3408   -0.5730 H   0  0  0  0  0  0  0  0  0  0  0  0
   -8.1301    2.9817   -0.8794 H   0  0  0  0  0  0  0  0  0  0  0  0
   -9.4159   -1.1124   -0.6559 H   0  0  0  0  0  0  0  0  0  0  0  0
   -9.8685    1.2521   -1.2553 H   0  0  0  0  0  0  0  0  0  0  0  0
    7.5455   -2.6513    0.0720 H   0  0  0  0  0  0  0  0  0  0  0  0
    6.3008   -2.0606    1.1960 H   0  0  0  0  0  0  0  0  0  0  0  0
    7.7359   -1.0546    0.8288 H   0  0  0  0  0  0  0  0  0  0  0  0
    4.9941    5.4143    0.1754 H   0  0  0  0  0  0  0  0  0  0  0  0
    4.0344    4.3362    1.1824 H   0  0  0  0  0  0  0  0  0  0  0  0
    3.7014    4.5047   -0.5984 H   0  0  0  0  0  0  0  0  0  0  0  0
  1 13  1  0  0  0  0
  1 16  1  0  0  0  0
  2 18  2  0  0  0  0
  3 21  1  0  0  0  0
  3 28  1  0  0  0  0
  4 23  1  0  0  0  0
  4 29  1  0  0  0  0
  5  7  1  0  0  0  0
  5  8  1  0  0  0  0
  5 11  1  0  0  0  0
  6  9  1  0  0  0  0
  6 10  1  0  0  0  0
  6 13  1  0  0  0  0
  7  9  1  0  0  0  0
  7 32  1  0  0  0  0
  7 33  1  0  0  0  0
  8 10  1  0  0  0  0
  8 30  1  0  0  0  0
  8 31  1  0  0  0  0
  9 34  1  0  0  0  0
  9 35  1  0  0  0  0
 10 36  1  0  0  0  0
 10 37  1  0  0  0  0
 11 12  1  0  0  0  0
 11 38  1  0  0  0  0
 11 39  1  0  0  0  0
 12 14  1  0  0  0  0
 12 40  1  0  0  0  0
 12 41  1  0  0  0  0
 13 15  2  0  0  0  0
 14 19  2  0  0  0  0
 14 20  1  0  0  0  0
 15 18  1  0  0  0  0
 15 42  1  0  0  0  0
 16 17  2  0  0  0  0
 16 22  1  0  0  0  0
 17 18  1  0  0  0  0
 17 21  1  0  0  0  0
 19 25  1  0  0  0  0
 19 43  1  0  0  0  0
 20 26  2  0  0  0  0
 20 44  1  0  0  0  0
 21 24  2  0  0  0  0
 22 23  2  0  0  0  0
 22 45  1  0  0  0  0
 23 24  1  0  0  0  0
 24 46  1  0  0  0  0
 25 27  2  0  0  0  0
 25 47  1  0  0  0  0
 26 27  1  0  0  0  0
 26 48  1  0  0  0  0
 27 49  1  0  0  0  0
 28 50  1  0  0  0  0
 28 51  1  0  0  0  0
 28 52  1  0  0  0  0
 29 53  1  0  0  0  0
 29 54  1  0  0  0  0
 29 55  1  0  0  0  0
M  END
> <PUBCHEM_COMPOUND_CID>
127042921

> <PUBCHEM_CONFORMER_RMSD>
0.8

> <PUBCHEM_CONFORMER_DIVERSEORDER>
1
70
61
43
68
55
38
71
29
50
56
5
45
18
19
31
58
11
75
49
23
51
35
33
24
9
13
54
53
37
79
8
46
42
48
57
10
20
41
2
12
40
69
30
66
63
83
3
59
32
16
44
82
62
34
84
25
39
76
78
22
21
60
28
67
64
14
47
74
6
77
52
26
4
65
7
17
72
36
80
73
15
81
27

> <PUBCHEM_MMFF94_PARTIAL_CHARGES>
37
1 -0.16
10 0.37
11 0.27
12 0.14
13 0.18
14 -0.14
15 -0.14
16 0.08
17 0.09
18 0.47
19 -0.15
2 -0.57
20 -0.15
21 0.08
22 -0.15
23 0.08
24 -0.15
25 -0.15
26 -0.15
27 -0.15
28 0.28
29 0.28
3 -0.36
4 -0.36
42 0.15
43 0.15
44 0.15
45 0.15
46 0.15
47 0.15
48 0.15
49 0.15
5 -0.81
6 -0.84
7 0.27
8 0.27
9 0.37

> <PUBCHEM_EFFECTIVE_ROTOR_COUNT>
7.2

> <PUBCHEM_PHARMACOPHORE_FEATURES>
10
1 1 acceptor
1 2 acceptor
1 3 acceptor
1 4 acceptor
1 5 cation
1 6 cation
6 1 13 15 16 17 18 rings
6 14 19 20 25 26 27 rings
6 16 17 21 22 23 24 rings
6 5 6 7 8 9 10 rings

> <PUBCHEM_HEAVY_ATOM_COUNT>
29

> <PUBCHEM_ATOM_DEF_STEREO_COUNT>
0

> <PUBCHEM_ATOM_UDEF_STEREO_COUNT>
0

> <PUBCHEM_BOND_DEF_STEREO_COUNT>
0

> <PUBCHEM_BOND_UDEF_STEREO_COUNT>
0

> <PUBCHEM_ISOTOPIC_ATOM_COUNT>
0

> <PUBCHEM_COMPONENT_COUNT>
1

> <PUBCHEM_CACTVS_TAUTO_COUNT>
2

> <PUBCHEM_CONFORMER_ID>
0792856900000001

> <PUBCHEM_MMFF94_ENERGY>
100.4081

> <PUBCHEM_FEATURE_SELFOVERLAP>
50.787

> <PUBCHEM_SHAPE_FINGERPRINT>
10066227 112 18409729556796783405
10162869 55 18271799129378793550
10280341 67 17983288515908718104
10411042 1 18050852118614426414
10625338 86 16298381366532391439
10673678 19 18341618152365720703
10816530 90 18411692218552883264
10835480 77 18409732902001482777
11007060 377 18261397793347921675
11135609 127 18272081760324296504
11386260 185 18272379655013441796
11607047 191 17201612659155166736
11991303 11 17561074844177632655
12522641 24 17531236224091443746
12664476 115 17967530155774838956
12741549 16 17749388132263563268
13878862 14 18339630218252932108
14117953 113 18201727219898815022
14251757 52 18334008402604790881
14429380 56 18410849971624266013
14565420 104 17894906343403210699
14598715 104 17313372410912377821
14933364 13 18408323272887709863
150020 25 18260266331373462429
15131766 46 18124028202907051556
15183329 4 18273215271018117641
15276724 80 18336826373935362829
15347591 1 18265334091697876874
15419008 145 18115294567420256344
15439362 3 18192999438468735724
15483637 11 18193278481597749084
15840311 113 18334859441837416933
16120349 18 18410289220620247031
17686467 74 17967532407703660933
18335252 114 18411695483028396197
19053607 189 17979347887698880368
19301679 30 17976531716772391546
19427546 62 18337956791794463570
19611394 137 18042137608510986571
20157964 124 18412830187475588770
2026 5 14547916992425851684
20721686 124 18272371919097834630
21033648 29 17531245114752528816
21049683 118 17822843312231955810
21315763 28 18411419497272811467
21344244 181 11743843577334812805
21344244 78 18191851342144476178
23081809 10 17275111587861083379
23522609 53 17560263361588450169
249057 25 17846510192323690049
249057 3 18272933821590099790
255183 451 17843132394405366838
2838139 119 18409446977718156749
335352 9 18412271619312203134
3383291 50 13110668485726450165
3534868 343 17702960123249416490
3633792 109 18341898446379418851
397830 11 17969517068345248987
4066623 53 17132112446383362568
4073 2 18114467859277829803
4098825 35 18411133632923933447
44317340 157 18201714089376428677
44555599 121 18201167568121691321
465052 167 8430321237927886753
58902169 19 18060411422084927655
6328613 192 18413389839679987001
6898599 12 18057040422698484847

> <PUBCHEM_SHAPE_MULTIPOLES>
563.37
26.14
3.32
0.83
45.72
3.21
-0.08
9.37
5.17
-7
0.18
0.41
-0.03
0.68

> <PUBCHEM_SHAPE_SELFOVERLAP>
1213.872

> <PUBCHEM_SHAPE_VOLUME>
311.7

> <PUBCHEM_COORDINATE_TYPE>
2
5
10

$$$$