127028357
  -OEChem-03242010103D

 54 57  0     0  0  0  0  0  0999 V2000
    1.8100    0.7395    0.2573 O   0  0  0  0  0  0  0  0  0  0  0  0
    3.2516   -3.0377   -0.2076 O   0  0  0  0  0  0  0  0  0  0  0  0
    5.7009   -2.0600   -0.4621 O   0  0  0  0  0  0  0  0  0  0  0  0
    6.1287    2.6617   -0.1809 O   0  0  0  0  0  0  0  0  0  0  0  0
   -3.0280    0.8729    0.2472 N   0  0  0  0  0  0  0  0  0  0  0  0
   -0.3500   -0.0727    0.4876 N   0  0  0  0  0  0  0  0  0  0  0  0
   -9.0357   -1.3120    0.0609 N   0  0  0  0  0  0  0  0  0  0  0  0
   -1.9276    1.8053    0.5310 C   0  0  0  0  0  0  0  0  0  0  0  0
   -2.5506   -0.2431   -0.5826 C   0  0  0  0  0  0  0  0  0  0  0  0
   -1.4193   -0.9989    0.1172 C   0  0  0  0  0  0  0  0  0  0  0  0
   -0.7826    1.0945    1.2552 C   0  0  0  0  0  0  0  0  0  0  0  0
   -4.1328    1.5675   -0.4127 C   0  0  0  0  0  0  0  0  0  0  0  0
    0.9679   -0.3662    0.2903 C   0  0  0  0  0  0  0  0  0  0  0  0
   -5.4268    0.8081   -0.2881 C   0  0  0  0  0  0  0  0  0  0  0  0
    1.4103   -1.6258    0.1403 C   0  0  0  0  0  0  0  0  0  0  0  0
    3.1543    0.5473    0.0643 C   0  0  0  0  0  0  0  0  0  0  0  0
    3.7228   -0.7134   -0.1020 C   0  0  0  0  0  0  0  0  0  0  0  0
    2.8462   -1.8920   -0.0706 C   0  0  0  0  0  0  0  0  0  0  0  0
   -6.1121    0.4042   -1.4340 C   0  0  0  0  0  0  0  0  0  0  0  0
   -5.9402    0.5077    0.9736 C   0  0  0  0  0  0  0  0  0  0  0  0
    5.0996   -0.8494   -0.2950 C   0  0  0  0  0  0  0  0  0  0  0  0
    3.9625    1.6843    0.0381 C   0  0  0  0  0  0  0  0  0  0  0  0
   -7.3107   -0.2996   -1.3183 C   0  0  0  0  0  0  0  0  0  0  0  0
   -7.1388   -0.1962    1.0895 C   0  0  0  0  0  0  0  0  0  0  0  0
   -7.8241   -0.5998   -0.0564 C   0  0  0  0  0  0  0  0  0  0  0  0
    5.3382    1.5538   -0.1547 C   0  0  0  0  0  0  0  0  0  0  0  0
    5.9054    0.2895   -0.3206 C   0  0  0  0  0  0  0  0  0  0  0  0
    6.1543   -2.7263    0.7150 C   0  0  0  0  0  0  0  0  0  0  0  0
    7.5264    2.4569   -0.3818 C   0  0  0  0  0  0  0  0  0  0  0  0
   -2.1971    0.1222   -1.5565 H   0  0  0  0  0  0  0  0  0  0  0  0
   -3.3595   -0.9573   -0.7752 H   0  0  0  0  0  0  0  0  0  0  0  0
   -1.5536    2.2562   -0.3980 H   0  0  0  0  0  0  0  0  0  0  0  0
   -2.2824    2.6204    1.1734 H   0  0  0  0  0  0  0  0  0  0  0  0
    0.0268    1.8147    1.4207 H   0  0  0  0  0  0  0  0  0  0  0  0
   -1.1137    0.7635    2.2480 H   0  0  0  0  0  0  0  0  0  0  0  0
   -1.7934   -1.5029    1.0171 H   0  0  0  0  0  0  0  0  0  0  0  0
   -1.0851   -1.7757   -0.5796 H   0  0  0  0  0  0  0  0  0  0  0  0
   -3.8972    1.7906   -1.4620 H   0  0  0  0  0  0  0  0  0  0  0  0
   -4.3094    2.5419    0.0642 H   0  0  0  0  0  0  0  0  0  0  0  0
    0.7711   -2.4995    0.1906 H   0  0  0  0  0  0  0  0  0  0  0  0
   -5.7232    0.6301   -2.4233 H   0  0  0  0  0  0  0  0  0  0  0  0
   -5.4205    0.8203    1.8755 H   0  0  0  0  0  0  0  0  0  0  0  0
    3.5234    2.6703    0.1674 H   0  0  0  0  0  0  0  0  0  0  0  0
   -7.8351   -0.6091   -2.2187 H   0  0  0  0  0  0  0  0  0  0  0  0
   -7.5290   -0.4232    2.0783 H   0  0  0  0  0  0  0  0  0  0  0  0
    6.9676    0.1292   -0.4751 H   0  0  0  0  0  0  0  0  0  0  0  0
   -9.5336   -1.6041   -0.7695 H   0  0  0  0  0  0  0  0  0  0  0  0
   -9.4088   -1.5291    0.9755 H   0  0  0  0  0  0  0  0  0  0  0  0
    6.4218   -3.7520    0.4468 H   0  0  0  0  0  0  0  0  0  0  0  0
    5.3761   -2.7561    1.4844 H   0  0  0  0  0  0  0  0  0  0  0  0
    7.0439   -2.2242    1.1078 H   0  0  0  0  0  0  0  0  0  0  0  0
    8.0015    3.4434   -0.3741 H   0  0  0  0  0  0  0  0  0  0  0  0
    7.7316    2.0118   -1.3614 H   0  0  0  0  0  0  0  0  0  0  0  0
    7.9713    1.8823    0.4378 H   0  0  0  0  0  0  0  0  0  0  0  0
  1 13  1  0  0  0  0
  1 16  1  0  0  0  0
  2 18  2  0  0  0  0
  3 21  1  0  0  0  0
  3 28  1  0  0  0  0
  4 26  1  0  0  0  0
  4 29  1  0  0  0  0
  5  8  1  0  0  0  0
  5  9  1  0  0  0  0
  5 12  1  0  0  0  0
  6 10  1  0  0  0  0
  6 11  1  0  0  0  0
  6 13  1  0  0  0  0
  7 25  1  0  0  0  0
  7 47  1  0  0  0  0
  7 48  1  0  0  0  0
  8 11  1  0  0  0  0
  8 32  1  0  0  0  0
  8 33  1  0  0  0  0
  9 10  1  0  0  0  0
  9 30  1  0  0  0  0
  9 31  1  0  0  0  0
 10 36  1  0  0  0  0
 10 37  1  0  0  0  0
 11 34  1  0  0  0  0
 11 35  1  0  0  0  0
 12 14  1  0  0  0  0
 12 38  1  0  0  0  0
 12 39  1  0  0  0  0
 13 15  2  0  0  0  0
 14 19  2  0  0  0  0
 14 20  1  0  0  0  0
 15 18  1  0  0  0  0
 15 40  1  0  0  0  0
 16 17  2  0  0  0  0
 16 22  1  0  0  0  0
 17 18  1  0  0  0  0
 17 21  1  0  0  0  0
 19 23  1  0  0  0  0
 19 41  1  0  0  0  0
 20 24  2  0  0  0  0
 20 42  1  0  0  0  0
 21 27  2  0  0  0  0
 22 26  2  0  0  0  0
 22 43  1  0  0  0  0
 23 25  2  0  0  0  0
 23 44  1  0  0  0  0
 24 25  1  0  0  0  0
 24 45  1  0  0  0  0
 26 27  1  0  0  0  0
 27 46  1  0  0  0  0
 28 49  1  0  0  0  0
 28 50  1  0  0  0  0
 28 51  1  0  0  0  0
 29 52  1  0  0  0  0
 29 53  1  0  0  0  0
 29 54  1  0  0  0  0
M  END
> <PUBCHEM_COMPOUND_CID>
127028357

> <PUBCHEM_CONFORMER_RMSD>
0.8

> <PUBCHEM_CONFORMER_DIVERSEORDER>
2
42
59
26
40
28
15
54
55
16
35
29
13
34
3
33
31
52
10
46
24
36
58
32
17
12
57
56
25
20
50
9
27
19
30
45
49
41
4
5
51
18
48
6
22
8
14
53
1
44
39
47
21
37
43
11
38
23
7

> <PUBCHEM_MMFF94_PARTIAL_CHARGES>
38
1 -0.16
10 0.37
11 0.37
12 0.41
13 0.18
14 -0.14
15 -0.14
16 0.08
17 0.09
18 0.47
19 -0.15
2 -0.57
20 -0.15
21 0.08
22 -0.15
23 -0.15
24 -0.15
25 0.1
26 0.08
27 -0.15
28 0.28
29 0.28
3 -0.36
4 -0.36
40 0.15
41 0.15
42 0.15
43 0.15
44 0.15
45 0.15
46 0.15
47 0.4
48 0.4
5 -0.81
6 -0.84
7 -0.9
8 0.27
9 0.27

> <PUBCHEM_EFFECTIVE_ROTOR_COUNT>
6.2

> <PUBCHEM_PHARMACOPHORE_FEATURES>
12
1 1 acceptor
1 2 acceptor
1 3 acceptor
1 4 acceptor
1 5 cation
1 6 cation
1 7 cation
1 7 donor
6 1 13 15 16 17 18 rings
6 14 19 20 23 24 25 rings
6 16 17 21 22 26 27 rings
6 5 6 8 9 10 11 rings

> <PUBCHEM_HEAVY_ATOM_COUNT>
29

> <PUBCHEM_ATOM_DEF_STEREO_COUNT>
0

> <PUBCHEM_ATOM_UDEF_STEREO_COUNT>
0

> <PUBCHEM_BOND_DEF_STEREO_COUNT>
0

> <PUBCHEM_BOND_UDEF_STEREO_COUNT>
0

> <PUBCHEM_ISOTOPIC_ATOM_COUNT>
0

> <PUBCHEM_COMPONENT_COUNT>
1

> <PUBCHEM_CACTVS_TAUTO_COUNT>
2

> <PUBCHEM_CONFORMER_ID>
07924C8500000002

> <PUBCHEM_MMFF94_ENERGY>
114.1036

> <PUBCHEM_FEATURE_SELFOVERLAP>
60.937

> <PUBCHEM_SHAPE_FINGERPRINT>
10 15 17822008748251419576
10299344 5 17989488524679853447
10391435 84 18113619036722855123
10411042 1 18049724011252551650
10595046 47 18342740676317875641
10693767 8 17914906331886838006
12166972 35 18335141968474862492
12236239 1 18130788927938092721
12730499 353 18334579027459145546
13150687 139 18130518509161673108
13533116 47 18272650126141326496
13782708 43 17823697469094041451
13835254 42 18341050714499659408
13914758 101 8286209349030485735
14251764 18 17703790332396792503
14294032 229 15696621895598808961
14461889 52 18187085091374127211
14856354 85 16702301283197877005
14933364 13 18409167693253998653
150020 25 18040432179612677343
15142383 8 9799690398297585946
15183329 4 17489585667243276629
15510794 2 18186522108295408363
15716309 27 18272933809163633351
1577012 14 18201445748563060569
17492 89 17984143651869275726
18335252 98 18336269028639481811
18365409 1 18268432523938853486
18608769 82 18337110176446341443
19319366 153 18411411795954195727
20157964 124 18409730669130055036
20554085 129 16008743623829195353
21049683 271 18343021138136420601
21150785 3 18131351938353294049
21267235 1 18200598003612249606
21315763 28 18337953393947285562
21403212 168 11097844207895730897
21521721 280 18410578387952080307
22149856 69 17203336555015336571
22956985 138 16412686449549026214
23081809 10 18060422391510808233
23389318 12 18341886433878105783
23424782 7 18260269676931628235
23516275 137 17488488337544258023
23522609 53 17774463632300066337
23559900 14 18339074990513468169
23569917 315 18270685238697298750
24771750 20 17681848628113521637
255183 451 17771355171611401046
27425 322 16733554943881979520
335352 9 18411144624552222806
34797466 226 18060708281871979508
4073 2 18187087303377632634
4149490 64 18334292081016185002
4258327 124 17532671202592644916
4325135 7 18411418432279288261
445580 167 18412541037761618125
44880568 143 17385723570049042725
45377200 153 16486413325681757831
46194498 28 18269556048907447126
6394761 36 10015590510476429113
999808 66 18336835269218736819

> <PUBCHEM_SHAPE_MULTIPOLES>
558.39
24.95
2.55
0.96
26.94
0.52
-0.02
-0.27
-2.97
-6.19
0.03
1.34
-0.06
-0.52

> <PUBCHEM_SHAPE_SELFOVERLAP>
1210.406

> <PUBCHEM_SHAPE_VOLUME>
307.2

> <PUBCHEM_COORDINATE_TYPE>
2
5
10

$$$$