34
 OpenBabel03292022263D

 61 62  0  0  1  0  0  0  0  0999 V2000
    0.9488   -3.4683    1.9558 C   0  0  0  0  0  0  0  0  0  0  0  0
    2.3896   -3.4733    2.1333 N   0  0  0  0  0  0  0  0  0  0  0  0
    3.0079   -4.7947    2.2678 C   0  0  0  0  0  0  0  0  0  0  0  0
    3.0345   -2.2928    2.4479 C   0  0  0  0  0  0  0  0  0  0  0  0
    2.4464   -1.2015    2.4518 O   0  0  0  0  0  0  0  0  0  0  0  0
    4.5252   -2.3252    2.7192 C   0  0  0  0  0  0  0  0  0  0  0  0
    5.2572   -2.3187    1.3872 C   0  0  0  0  0  0  0  0  0  0  0  0
    7.0259   -1.9530    1.5417 S   0  0  0  0  0  0  0  0  0  0  0  0
    7.6963   -3.4122    2.4572 C   0  0  3  0  0  0  0  0  0  0  0  0
    7.1512   -5.0210    1.7870 S   0  0  0  0  0  0  0  0  0  0  0  0
    7.9158   -4.9983    0.1232 C   0  0  0  0  0  0  0  0  0  0  0  0
    7.5413   -6.2362   -0.6778 C   0  0  0  0  0  0  0  0  0  0  0  0
    6.0705   -6.3204   -1.0869 C   0  0  0  0  0  0  0  0  0  0  0  0
    5.4366   -5.2247   -1.1415 O   0  0  0  0  0  0  0  0  0  0  0  0
    5.6558   -7.4836   -1.3345 O   0  5  0  0  0  0  0  0  0  0  0  0
    9.2088   -3.3475    2.7153 C   0  0  0  0  0  0  0  0  0  0  0  0
    9.8532   -4.3968    3.4012 C   0  0  0  0  0  0  0  0  0  0  0  0
   11.2231   -4.3511    3.6780 C   0  0  0  0  0  0  0  0  0  0  0  0
   11.9789   -3.2395    3.3058 C   0  0  0  0  0  0  0  0  0  0  0  0
   11.3684   -2.1702    2.6517 C   0  0  0  0  0  0  0  0  0  0  0  0
   12.1408   -1.0011    2.2151 C   0  0  0  0  0  0  0  0  0  0  0  0
   12.5812   -0.9409    0.9493 C   0  0  0  0  0  0  0  0  0  0  0  0
   13.3711    0.1388    0.3352 C   0  0  0  0  0  0  0  0  0  0  0  0
   14.0711   -0.1601   -0.8244 C   0  0  0  0  0  0  0  0  0  0  0  0
   14.8289    0.8332   -1.4284 C   0  0  0  0  0  0  0  0  0  0  0  0
   14.8433    2.1146   -0.8820 C   0  0  0  0  0  0  0  0  0  0  0  0
   15.5899    3.1390   -1.4888 C   0  0  0  0  0  0  0  0  0  0  0  0
   15.5565    4.4264   -0.9703 C   0  0  0  0  0  0  0  0  0  0  0  0
   14.7813    4.6819    0.1556 C   0  0  0  0  0  0  0  0  0  0  0  0
   14.6988    6.2876    0.7728 Cl  0  0  0  0  0  0  0  0  0  0  0  0
   14.0646    3.6549    0.7777 C   0  0  0  0  0  0  0  0  0  0  0  0
   14.0782    2.3543    0.2821 C   0  0  0  0  0  0  0  0  0  0  0  0
   13.3685    1.3747    0.8936 N   0  0  0  0  0  0  0  0  0  0  0  0
   10.0008   -2.2395    2.3534 C   0  0  0  0  0  0  0  0  0  0  0  0
    1.8136    0.6634    1.7104 Na  0  3  0  0  0  0  0  0  0  0  0  0
    0.6394   -4.3095    1.3303 H   0  0  0  0  0  0  0  0  0  0  0  0
    0.6292   -2.5396    1.4721 H   0  0  0  0  0  0  0  0  0  0  0  0
    0.4749   -3.5363    2.9386 H   0  0  0  0  0  0  0  0  0  0  0  0
    2.5166   -5.5061    1.5991 H   0  0  0  0  0  0  0  0  0  0  0  0
    2.8983   -5.1189    3.3063 H   0  0  0  0  0  0  0  0  0  0  0  0
    4.0659   -4.7700    2.0151 H   0  0  0  0  0  0  0  0  0  0  0  0
    4.7871   -3.1761    3.3540 H   0  0  0  0  0  0  0  0  0  0  0  0
    4.7627   -1.4250    3.3035 H   0  0  0  0  0  0  0  0  0  0  0  0
    4.8483   -1.5090    0.7696 H   0  0  0  0  0  0  0  0  0  0  0  0
    5.0925   -3.2284    0.8080 H   0  0  0  0  0  0  0  0  0  0  0  0
    7.2395   -3.3455    3.4514 H   0  0  0  0  0  0  0  0  0  0  0  0
    9.0033   -4.9790    0.2498 H   0  0  0  0  0  0  0  0  0  0  0  0
    7.6226   -4.0947   -0.4174 H   0  0  0  0  0  0  0  0  0  0  0  0
    7.8319   -7.1467   -0.1376 H   0  0  0  0  0  0  0  0  0  0  0  0
    8.1217   -6.2341   -1.6100 H   0  0  0  0  0  0  0  0  0  0  0  0
    9.2943   -5.2780    3.7161 H   0  0  0  0  0  0  0  0  0  0  0  0
   11.6985   -5.1898    4.1812 H   0  0  0  0  0  0  0  0  0  0  0  0
   13.0441   -3.2205    3.5201 H   0  0  0  0  0  0  0  0  0  0  0  0
   12.3227   -0.2151    2.9404 H   0  0  0  0  0  0  0  0  0  0  0  0
   12.3663   -1.7765    0.2868 H   0  0  0  0  0  0  0  0  0  0  0  0
   14.0416   -1.1543   -1.2594 H   0  0  0  0  0  0  0  0  0  0  0  0
   15.3900    0.5989   -2.3293 H   0  0  0  0  0  0  0  0  0  0  0  0
   16.1912    2.9367   -2.3737 H   0  0  0  0  0  0  0  0  0  0  0  0
   16.1243    5.2205   -1.4513 H   0  0  0  0  0  0  0  0  0  0  0  0
   13.4689    3.8720    1.6614 H   0  0  0  0  0  0  0  0  0  0  0  0
    9.5699   -1.3951    1.8213 H   0  0  0  0  0  0  0  0  0  0  0  0
  1  2  1  0  0  0  0
  1 36  1  0  0  0  0
  1 37  1  0  0  0  0
  1 38  1  0  0  0  0
  2  3  1  0  0  0  0
  2  4  1  0  0  0  0
  3 39  1  0  0  0  0
  3 40  1  0  0  0  0
  3 41  1  0  0  0  0
  4  5  2  0  0  0  0
  4  6  1  0  0  0  0
  6  7  1  0  0  0  0
  6 42  1  0  0  0  0
  6 43  1  0  0  0  0
  7  8  1  0  0  0  0
  7 44  1  0  0  0  0
  7 45  1  0  0  0  0
  8  9  1  0  0  0  0
  9 10  1  0  0  0  0
  9 16  1  0  0  0  0
  9 46  1  0  0  0  0
 10 11  1  0  0  0  0
 11 12  1  0  0  0  0
 11 47  1  0  0  0  0
 11 48  1  0  0  0  0
 12 13  1  0  0  0  0
 12 49  1  0  0  0  0
 12 50  1  0  0  0  0
 13 14  2  0  0  0  0
 13 15  1  0  0  0  0
 16 17  1  0  0  0  0
 16 34  2  0  0  0  0
 17 18  2  0  0  0  0
 17 51  1  0  0  0  0
 18 19  1  0  0  0  0
 18 52  1  0  0  0  0
 19 20  2  0  0  0  0
 19 53  1  0  0  0  0
 20 21  1  0  0  0  0
 20 34  1  0  0  0  0
 21 22  2  0  0  0  0
 21 54  1  0  0  0  0
 22 23  1  0  0  0  0
 22 55  1  0  0  0  0
 23 24  1  0  0  0  0
 23 33  2  0  0  0  0
 24 25  2  0  0  0  0
 24 56  1  0  0  0  0
 25 26  1  0  0  0  0
 25 57  1  0  0  0  0
 26 27  1  0  0  0  0
 26 32  2  0  0  0  0
 27 28  2  0  0  0  0
 27 58  1  0  0  0  0
 28 29  1  0  0  0  0
 28 59  1  0  0  0  0
 29 30  1  0  0  0  0
 29 31  2  0  0  0  0
 31 32  1  0  0  0  0
 31 60  1  0  0  0  0
 32 33  1  0  0  0  0
 34 61  1  0  0  0  0
M  CHG  2  15  -1  35   1
M  END
>  <Energy>
-38.1213

$$$$