35
 OpenBabel03292022263D

 93 97  0  0  1  0  0  0  0  0999 V2000
    1.3314    0.3427   -0.1582 C   0  0  0  0  0  0  0  0  0  0  0  0
    2.6085   -0.1870    0.1814 O   0  0  0  0  0  0  0  0  0  0  0  0
    3.2392   -0.9455   -0.7656 C   0  0  0  0  0  0  0  0  0  0  0  0
    4.4568   -1.5032   -0.3707 C   0  0  0  0  0  0  0  0  0  0  0  0
    5.2153   -2.3170   -1.2314 C   0  0  0  0  0  0  0  0  0  0  0  0
    6.4133   -2.6981   -0.6875 O   0  0  0  0  0  0  0  0  0  0  0  0
    6.8596   -4.0248   -0.9297 C   0  0  0  0  0  0  0  0  0  0  0  0
    4.7506   -2.5828   -2.5293 C   0  0  0  0  0  0  0  0  0  0  0  0
    3.5059   -2.0387   -2.8993 C   0  0  0  0  0  0  0  0  0  0  0  0
    2.7732   -1.2052   -2.0459 C   0  0  0  0  0  0  0  0  0  0  0  0
    2.8630   -2.3465   -4.0831 O   0  0  0  0  0  0  0  0  0  0  0  0
    3.3021   -3.5868   -4.7060 C   0  0  2  0  0  0  0  0  0  0  0  0
    2.7796   -4.8189   -3.9465 C   0  0  0  0  0  0  0  0  0  0  0  0
    1.9114   -4.6815   -2.8530 C   0  0  0  0  0  0  0  0  0  0  0  0
    1.4543   -5.7661   -2.0933 C   0  0  0  0  0  0  0  0  0  0  0  0
    0.7041   -5.5629   -0.9623 O   0  0  0  0  0  0  0  0  0  0  0  0
   -0.0672   -4.3689   -0.8885 C   0  0  0  0  0  0  0  0  0  0  0  0
    1.8253   -7.0741   -2.4554 C   0  0  0  0  0  0  0  0  0  0  0  0
    1.4438   -8.2128   -1.7940 O   0  0  0  0  0  0  0  0  0  0  0  0
    0.5309   -8.1452   -0.7087 C   0  0  0  0  0  0  0  0  0  0  0  0
    2.6493   -7.2434   -3.5939 C   0  0  0  0  0  0  0  0  0  0  0  0
    3.1068   -8.4164   -4.1492 O   0  0  0  0  0  0  0  0  0  0  0  0
    2.7681   -9.6531   -3.5401 C   0  0  0  0  0  0  0  0  0  0  0  0
    3.1121   -6.1222   -4.3193 C   0  0  0  0  0  0  0  0  0  0  0  0
    4.8273   -3.4354   -4.9125 C   0  0  2  0  0  0  0  0  0  0  0  0
    5.4816   -4.4301   -5.7278 O   0  0  0  0  0  0  0  0  0  0  0  0
    5.2563   -4.3316   -7.0623 C   0  0  0  0  0  0  0  0  0  0  0  0
    4.3931   -3.6420   -7.5825 O   0  0  0  0  0  0  0  0  0  0  0  0
    6.2525   -5.1237   -7.8402 C   0  0  0  0  0  0  0  0  0  0  0  0
    7.3860   -5.6994   -7.2484 C   0  0  0  0  0  0  0  0  0  0  0  0
    8.3320   -6.3654   -8.0364 C   0  0  0  0  0  0  0  0  0  0  0  0
    8.1385   -6.4654   -9.4097 C   0  0  0  0  0  0  0  0  0  0  0  0
    9.0327   -7.1385  -10.1525 F   0  0  0  0  0  0  0  0  0  0  0  0
    6.9903   -5.9496  -10.0105 C   0  0  0  0  0  0  0  0  0  0  0  0
    6.7801   -6.1839  -11.3891 N   0  0  0  0  0  0  0  0  0  0  0  0
    5.5413   -6.5541  -11.8735 C   0  0  0  0  0  0  0  0  0  0  0  0
    4.5294   -6.6904  -11.1937 O   0  0  0  0  0  0  0  0  0  0  0  0
    5.5486   -6.8846  -13.3214 C   0  0  0  0  0  0  0  0  0  0  0  0
    4.4426   -7.4608  -13.8370 C   0  0  0  0  0  0  0  0  0  0  0  0
    4.3297   -7.8267  -15.2469 C   0  0  0  0  0  0  0  0  0  0  0  0
    4.6369   -9.1202  -15.6436 C   0  0  0  0  0  0  0  0  0  0  0  0
    4.4815   -9.5077  -16.9797 C   0  0  0  0  0  0  0  0  0  0  0  0
    4.7683  -10.7764  -17.4284 O   0  0  0  0  0  0  0  0  0  0  0  0
    4.7589  -11.8062  -16.4450 C   0  0  0  0  0  0  0  0  0  0  0  0
    4.0240   -8.5703  -17.9359 C   0  0  0  0  0  0  0  0  0  0  0  0
    3.9715   -9.0394  -19.2307 O   0  0  0  0  0  0  0  0  0  0  0  0
    2.9369   -8.5364  -20.0675 C   0  0  0  0  0  0  0  0  0  0  0  0
    3.7279   -7.2550  -17.5359 C   0  0  0  0  0  0  0  0  0  0  0  0
    3.3334   -6.3536  -18.4946 O   0  0  0  0  0  0  0  0  0  0  0  0
    3.0395   -5.0216  -18.0911 C   0  0  0  0  0  0  0  0  0  0  0  0
    3.8654   -6.9008  -16.1839 C   0  0  0  0  0  0  0  0  0  0  0  0
    6.0629   -5.2500   -9.2262 C   0  0  0  0  0  0  0  0  0  0  0  0
    5.5053   -3.4067   -3.5390 C   0  0  0  0  0  0  0  0  0  0  0  0
    1.0016    0.9801    0.6681 H   0  0  0  0  0  0  0  0  0  0  0  0
    0.5955   -0.4601   -0.2765 H   0  0  0  0  0  0  0  0  0  0  0  0
    1.3802    0.9686   -1.0553 H   0  0  0  0  0  0  0  0  0  0  0  0
    4.8251   -1.3051    0.6345 H   0  0  0  0  0  0  0  0  0  0  0  0
    7.5368   -4.3048   -0.1164 H   0  0  0  0  0  0  0  0  0  0  0  0
    7.4467   -4.0611   -1.8511 H   0  0  0  0  0  0  0  0  0  0  0  0
    6.0405   -4.7512   -0.9446 H   0  0  0  0  0  0  0  0  0  0  0  0
    1.8249   -0.8171   -2.4015 H   0  0  0  0  0  0  0  0  0  0  0  0
    2.7995   -3.6137   -5.6789 H   0  0  0  0  0  0  0  0  0  0  0  0
    1.6018   -3.6866   -2.5610 H   0  0  0  0  0  0  0  0  0  0  0  0
   -0.8078   -4.5011   -0.0943 H   0  0  0  0  0  0  0  0  0  0  0  0
   -0.6104   -4.1826   -1.8212 H   0  0  0  0  0  0  0  0  0  0  0  0
    0.5612   -3.5148   -0.6166 H   0  0  0  0  0  0  0  0  0  0  0  0
    0.2930   -9.1709   -0.4110 H   0  0  0  0  0  0  0  0  0  0  0  0
   -0.4137   -7.6745   -1.0008 H   0  0  0  0  0  0  0  0  0  0  0  0
    0.9886   -7.6599    0.1592 H   0  0  0  0  0  0  0  0  0  0  0  0
    3.2220  -10.4514   -4.1355 H   0  0  0  0  0  0  0  0  0  0  0  0
    1.6868   -9.8248   -3.5515 H   0  0  0  0  0  0  0  0  0  0  0  0
    3.1902   -9.7261   -2.5326 H   0  0  0  0  0  0  0  0  0  0  0  0
    3.7376   -6.2999   -5.1914 H   0  0  0  0  0  0  0  0  0  0  0  0
    5.0136   -2.4538   -5.3762 H   0  0  0  0  0  0  0  0  0  0  0  0
    7.5520   -5.6301   -6.1755 H   0  0  0  0  0  0  0  0  0  0  0  0
    9.2070   -6.8224   -7.5849 H   0  0  0  0  0  0  0  0  0  0  0  0
    7.5954   -6.4574  -11.9283 H   0  0  0  0  0  0  0  0  0  0  0  0
    6.4187   -6.6504  -13.9190 H   0  0  0  0  0  0  0  0  0  0  0  0
    3.5837   -7.6888  -13.2167 H   0  0  0  0  0  0  0  0  0  0  0  0
    5.0104   -9.8131  -14.8985 H   0  0  0  0  0  0  0  0  0  0  0  0
    4.8547  -12.7675  -16.9578 H   0  0  0  0  0  0  0  0  0  0  0  0
    3.8142  -11.8154  -15.8889 H   0  0  0  0  0  0  0  0  0  0  0  0
    5.6128  -11.7140  -15.7651 H   0  0  0  0  0  0  0  0  0  0  0  0
    2.8409   -9.2151  -20.9215 H   0  0  0  0  0  0  0  0  0  0  0  0
    3.2013   -7.5590  -20.4812 H   0  0  0  0  0  0  0  0  0  0  0  0
    1.9689   -8.5098  -19.5554 H   0  0  0  0  0  0  0  0  0  0  0  0
    2.7753   -4.4513  -18.9867 H   0  0  0  0  0  0  0  0  0  0  0  0
    3.9145   -4.5418  -17.6408 H   0  0  0  0  0  0  0  0  0  0  0  0
    2.1790   -4.9971  -17.4148 H   0  0  0  0  0  0  0  0  0  0  0  0
    3.6323   -5.9059  -15.8307 H   0  0  0  0  0  0  0  0  0  0  0  0
    5.1922   -4.7922   -9.6924 H   0  0  0  0  0  0  0  0  0  0  0  0
    6.5190   -3.0067   -3.6623 H   0  0  0  0  0  0  0  0  0  0  0  0
    5.5979   -4.4390   -3.1848 H   0  0  0  0  0  0  0  0  0  0  0  0
  1  2  1  0  0  0  0
  1 54  1  0  0  0  0
  1 55  1  0  0  0  0
  1 56  1  0  0  0  0
  2  3  1  0  0  0  0
  3  4  1  0  0  0  0
  3 10  2  0  0  0  0
  4  5  2  0  0  0  0
  4 57  1  0  0  0  0
  5  6  1  0  0  0  0
  5  8  1  0  0  0  0
  6  7  1  0  0  0  0
  7 58  1  0  0  0  0
  7 59  1  0  0  0  0
  7 60  1  0  0  0  0
  8  9  2  0  0  0  0
  8 53  1  0  0  0  0
  9 10  1  0  0  0  0
  9 11  1  0  0  0  0
 10 61  1  0  0  0  0
 11 12  1  0  0  0  0
 12 13  1  0  0  0  0
 12 25  1  0  0  0  0
 12 62  1  6  0  0  0
 13 14  1  0  0  0  0
 13 24  2  0  0  0  0
 14 15  2  0  0  0  0
 14 63  1  0  0  0  0
 15 16  1  0  0  0  0
 15 18  1  0  0  0  0
 16 17  1  0  0  0  0
 17 64  1  0  0  0  0
 17 65  1  0  0  0  0
 17 66  1  0  0  0  0
 18 19  1  0  0  0  0
 18 21  2  0  0  0  0
 19 20  1  0  0  0  0
 20 67  1  0  0  0  0
 20 68  1  0  0  0  0
 20 69  1  0  0  0  0
 21 22  1  0  0  0  0
 21 24  1  0  0  0  0
 22 23  1  0  0  0  0
 23 70  1  0  0  0  0
 23 71  1  0  0  0  0
 23 72  1  0  0  0  0
 24 73  1  0  0  0  0
 25 53  1  0  0  0  0
 25 26  1  0  0  0  0
 25 74  1  6  0  0  0
 26 27  1  0  0  0  0
 27 28  2  0  0  0  0
 27 29  1  0  0  0  0
 29 30  1  0  0  0  0
 29 52  2  0  0  0  0
 30 31  2  0  0  0  0
 30 75  1  0  0  0  0
 31 32  1  0  0  0  0
 31 76  1  0  0  0  0
 32 33  1  0  0  0  0
 32 34  2  0  0  0  0
 34 35  1  0  0  0  0
 34 52  1  0  0  0  0
 35 36  1  0  0  0  0
 35 77  1  0  0  0  0
 36 37  2  0  0  0  0
 36 38  1  0  0  0  0
 38 39  2  0  0  0  0
 38 78  1  0  0  0  0
 39 40  1  0  0  0  0
 39 79  1  0  0  0  0
 40 41  1  0  0  0  0
 40 51  2  0  0  0  0
 41 42  2  0  0  0  0
 41 80  1  0  0  0  0
 42 43  1  0  0  0  0
 42 45  1  0  0  0  0
 43 44  1  0  0  0  0
 44 81  1  0  0  0  0
 44 82  1  0  0  0  0
 44 83  1  0  0  0  0
 45 46  1  0  0  0  0
 45 48  2  0  0  0  0
 46 47  1  0  0  0  0
 47 84  1  0  0  0  0
 47 85  1  0  0  0  0
 47 86  1  0  0  0  0
 48 49  1  0  0  0  0
 48 51  1  0  0  0  0
 49 50  1  0  0  0  0
 50 87  1  0  0  0  0
 50 88  1  0  0  0  0
 50 89  1  0  0  0  0
 51 90  1  0  0  0  0
 52 91  1  0  0  0  0
 53 92  1  0  0  0  0
 53 93  1  0  0  0  0
M  END
>  <Energy>
196.411

$$$$