44420815
  -OEChem-03242010103D

 71 74  0     1  0  0  0  0  0999 V2000
   -1.2257   -3.8433   -3.0896 O   0  0  0  0  0  0  0  0  0  0  0  0
   -2.1884   -3.0920   -0.5583 O   0  0  0  0  0  0  0  0  0  0  0  0
   -3.8193   -1.0911   -1.2393 O   0  0  0  0  0  0  0  0  0  0  0  0
    0.9777   -1.5922   -1.1338 N   0  0  0  0  0  0  0  0  0  0  0  0
    3.2772   -0.2259   -0.1314 N   0  0  0  0  0  0  0  0  0  0  0  0
    0.9753   -0.1302   -1.0031 C   0  0  0  0  0  0  0  0  0  0  0  0
    2.3267   -2.0609   -1.4746 C   0  0  0  0  0  0  0  0  0  0  0  0
    1.9381    0.3258    0.0961 C   0  0  0  0  0  0  0  0  0  0  0  0
    3.3337   -1.6702   -0.3904 C   0  0  0  0  0  0  0  0  0  0  0  0
    0.0151   -2.0182   -2.1491 C   0  0  0  0  0  0  0  0  0  0  0  0
    4.3879    0.3785    0.4677 C   0  0  0  0  0  0  0  0  0  0  0  0
   -0.3325   -3.5035   -2.0251 C   0  0  1  0  0  0  0  0  0  0  0  0
    5.4275    0.8928   -0.3070 C   0  0  0  0  0  0  0  0  0  0  0  0
   -0.9967   -3.8594   -0.6968 C   0  0  0  0  0  0  0  0  0  0  0  0
    4.4479    0.4612    1.8588 C   0  0  0  0  0  0  0  0  0  0  0  0
    6.5272    1.4898    0.3093 C   0  0  0  0  0  0  0  0  0  0  0  0
    5.3670    0.8059   -1.7997 C   0  0  0  0  0  0  0  0  0  0  0  0
    5.5477    1.0581    2.4753 C   0  0  0  0  0  0  0  0  0  0  0  0
    6.5874    1.5725    1.7005 C   0  0  0  0  0  0  0  0  0  0  0  0
    7.6539    2.0485   -0.4965 C   0  0  0  0  0  0  0  0  0  0  0  0
   -2.5779   -2.7860    0.7184 C   0  0  0  0  0  0  0  0  0  0  0  0
   -3.2844   -1.6144    0.9899 C   0  0  0  0  0  0  0  0  0  0  0  0
   -2.2612   -3.6653    1.7538 C   0  0  0  0  0  0  0  0  0  0  0  0
   -3.6265   -0.6837   -0.0765 C   0  0  0  0  0  0  0  0  0  0  0  0
   -3.7531    0.8195    0.2285 C   0  0  0  0  0  0  0  0  0  0  0  0
   -3.6742   -1.3221    2.2969 C   0  0  0  0  0  0  0  0  0  0  0  0
   -3.3645    1.7127   -0.9520 C   0  0  0  0  0  0  0  0  0  0  0  0
   -2.6510   -3.3731    3.0609 C   0  0  0  0  0  0  0  0  0  0  0  0
   -3.3576   -2.2015    3.3323 C   0  0  0  0  0  0  0  0  0  0  0  0
   -3.4934    3.1747   -0.6103 C   0  0  0  0  0  0  0  0  0  0  0  0
   -4.6980    3.8402   -0.8373 C   0  0  0  0  0  0  0  0  0  0  0  0
   -2.4083    3.8624   -0.0671 C   0  0  0  0  0  0  0  0  0  0  0  0
   -4.8176    5.1936   -0.5213 C   0  0  0  0  0  0  0  0  0  0  0  0
   -2.5278    5.2158    0.2490 C   0  0  0  0  0  0  0  0  0  0  0  0
   -3.7325    5.8813    0.0219 C   0  0  0  0  0  0  0  0  0  0  0  0
   -0.0290    0.2237   -0.7400 H   0  0  0  0  0  0  0  0  0  0  0  0
    1.2510    0.3442   -1.9547 H   0  0  0  0  0  0  0  0  0  0  0  0
    2.3583   -3.1513   -1.5649 H   0  0  0  0  0  0  0  0  0  0  0  0
    2.6505   -1.6448   -2.4383 H   0  0  0  0  0  0  0  0  0  0  0  0
    1.9740    1.4222    0.0984 H   0  0  0  0  0  0  0  0  0  0  0  0
    1.5650    0.0035    1.0765 H   0  0  0  0  0  0  0  0  0  0  0  0
    3.1219   -2.2158    0.5382 H   0  0  0  0  0  0  0  0  0  0  0  0
    4.3372   -1.9642   -0.7221 H   0  0  0  0  0  0  0  0  0  0  0  0
    0.3791   -1.7977   -3.1623 H   0  0  0  0  0  0  0  0  0  0  0  0
   -0.9166   -1.4430   -2.0596 H   0  0  0  0  0  0  0  0  0  0  0  0
    0.5518   -4.1346   -2.1573 H   0  0  0  0  0  0  0  0  0  0  0  0
   -0.2801   -3.6727    0.1127 H   0  0  0  0  0  0  0  0  0  0  0  0
   -1.2746   -4.9201   -0.7027 H   0  0  0  0  0  0  0  0  0  0  0  0
    3.6504    0.0601    2.4792 H   0  0  0  0  0  0  0  0  0  0  0  0
    5.7184    1.7302   -2.2699 H   0  0  0  0  0  0  0  0  0  0  0  0
    4.3501    0.6613   -2.1777 H   0  0  0  0  0  0  0  0  0  0  0  0
    5.9817   -0.0289   -2.1515 H   0  0  0  0  0  0  0  0  0  0  0  0
   -0.7665   -3.6608   -3.9272 H   0  0  0  0  0  0  0  0  0  0  0  0
    5.5950    1.1213    3.5585 H   0  0  0  0  0  0  0  0  0  0  0  0
    7.4363    2.0350    2.1969 H   0  0  0  0  0  0  0  0  0  0  0  0
    8.0306    1.3087   -1.2104 H   0  0  0  0  0  0  0  0  0  0  0  0
    7.3324    2.9464   -1.0342 H   0  0  0  0  0  0  0  0  0  0  0  0
    8.5011    2.3326    0.1379 H   0  0  0  0  0  0  0  0  0  0  0  0
   -1.7421   -4.6042    1.5856 H   0  0  0  0  0  0  0  0  0  0  0  0
   -4.7912    1.0092    0.5266 H   0  0  0  0  0  0  0  0  0  0  0  0
   -3.1053    1.0657    1.0785 H   0  0  0  0  0  0  0  0  0  0  0  0
   -4.2411   -0.4275    2.5389 H   0  0  0  0  0  0  0  0  0  0  0  0
   -2.3365    1.4921   -1.2672 H   0  0  0  0  0  0  0  0  0  0  0  0
   -3.9908    1.4843   -1.8239 H   0  0  0  0  0  0  0  0  0  0  0  0
   -2.4122   -4.0615    3.8663 H   0  0  0  0  0  0  0  0  0  0  0  0
   -3.6661   -1.9771    4.3492 H   0  0  0  0  0  0  0  0  0  0  0  0
   -5.5510    3.3145   -1.2583 H   0  0  0  0  0  0  0  0  0  0  0  0
   -1.4652    3.3541    0.1157 H   0  0  0  0  0  0  0  0  0  0  0  0
   -5.7557    5.7117   -0.6977 H   0  0  0  0  0  0  0  0  0  0  0  0
   -1.6830    5.7513    0.6725 H   0  0  0  0  0  0  0  0  0  0  0  0
   -3.8255    6.9349    0.2682 H   0  0  0  0  0  0  0  0  0  0  0  0
  1 12  1  0  0  0  0
  1 53  1  0  0  0  0
  2 14  1  0  0  0  0
  2 21  1  0  0  0  0
  3 24  2  0  0  0  0
  4  6  1  0  0  0  0
  4  7  1  0  0  0  0
  4 10  1  0  0  0  0
  5  8  1  0  0  0  0
  5  9  1  0  0  0  0
  5 11  1  0  0  0  0
  6  8  1  0  0  0  0
  6 36  1  0  0  0  0
  6 37  1  0  0  0  0
  7  9  1  0  0  0  0
  7 38  1  0  0  0  0
  7 39  1  0  0  0  0
  8 40  1  0  0  0  0
  8 41  1  0  0  0  0
  9 42  1  0  0  0  0
  9 43  1  0  0  0  0
 10 12  1  0  0  0  0
 10 44  1  0  0  0  0
 10 45  1  0  0  0  0
 11 13  1  0  0  0  0
 11 15  2  0  0  0  0
 12 14  1  0  0  0  0
 12 46  1  0  0  0  0
 13 16  2  0  0  0  0
 13 17  1  0  0  0  0
 14 47  1  0  0  0  0
 14 48  1  0  0  0  0
 15 18  1  0  0  0  0
 15 49  1  0  0  0  0
 16 19  1  0  0  0  0
 16 20  1  0  0  0  0
 17 50  1  0  0  0  0
 17 51  1  0  0  0  0
 17 52  1  0  0  0  0
 18 19  2  0  0  0  0
 18 54  1  0  0  0  0
 19 55  1  0  0  0  0
 20 56  1  0  0  0  0
 20 57  1  0  0  0  0
 20 58  1  0  0  0  0
 21 22  1  0  0  0  0
 21 23  2  0  0  0  0
 22 24  1  0  0  0  0
 22 26  2  0  0  0  0
 23 28  1  0  0  0  0
 23 59  1  0  0  0  0
 24 25  1  0  0  0  0
 25 27  1  0  0  0  0
 25 60  1  0  0  0  0
 25 61  1  0  0  0  0
 26 29  1  0  0  0  0
 26 62  1  0  0  0  0
 27 30  1  0  0  0  0
 27 63  1  0  0  0  0
 27 64  1  0  0  0  0
 28 29  2  0  0  0  0
 28 65  1  0  0  0  0
 29 66  1  0  0  0  0
 30 31  2  0  0  0  0
 30 32  1  0  0  0  0
 31 33  1  0  0  0  0
 31 67  1  0  0  0  0
 32 34  2  0  0  0  0
 32 68  1  0  0  0  0
 33 35  2  0  0  0  0
 33 69  1  0  0  0  0
 34 35  1  0  0  0  0
 34 70  1  0  0  0  0
 35 71  1  0  0  0  0
M  END
> <PUBCHEM_COMPOUND_CID>
44420815

> <PUBCHEM_CONFORMER_RMSD>
1.6

> <PUBCHEM_CONFORMER_DIVERSEORDER>
1
125
70
16
69
87
81
100
110
66
74
126
120
96
46
65
61
75
73
37
97
60
59
28
112
3
98
27
34
63
83
92
18
121
42
99
67
57
6
17
7
50
88
118
82
109
2
43
107
10
41
115
85
30
44
123
64
23
90
14
80
72
53
38
40
36
95
124
5
78
31
84
101
79
33
111
91
89
77
25
12
54
103
71
104
35
128
129
119
39
24
8
76
52
47
56
86
93
26
116
48
22
49
13
55
114
102
122
51
68
29
9
32
21
19
127
105
11
113
108
62
20
117
45
94
4
106
15
58

> <PUBCHEM_MMFF94_PARTIAL_CHARGES>
48
1 -0.68
10 0.27
11 0.1
12 0.28
13 -0.14
14 0.28
15 -0.15
16 -0.14
17 0.14
18 -0.15
19 -0.15
2 -0.36
20 0.14
21 0.08
22 0.09
23 -0.15
24 0.42
25 0.06
26 -0.15
27 0.14
28 -0.15
29 -0.15
3 -0.57
30 -0.14
31 -0.15
32 -0.15
33 -0.15
34 -0.15
35 -0.15
4 -0.81
49 0.15
5 -0.84
53 0.4
54 0.15
55 0.15
59 0.15
6 0.27
62 0.15
65 0.15
66 0.15
67 0.15
68 0.15
69 0.15
7 0.27
70 0.15
71 0.15
8 0.37
9 0.37

> <PUBCHEM_EFFECTIVE_ROTOR_COUNT>
11.2

> <PUBCHEM_PHARMACOPHORE_FEATURES>
10
1 1 acceptor
1 1 donor
1 2 acceptor
1 3 acceptor
1 4 cation
1 5 cation
6 11 13 15 16 18 19 rings
6 21 22 23 26 28 29 rings
6 30 31 32 33 34 35 rings
6 4 5 6 7 8 9 rings

> <PUBCHEM_HEAVY_ATOM_COUNT>
35

> <PUBCHEM_ATOM_DEF_STEREO_COUNT>
0

> <PUBCHEM_ATOM_UDEF_STEREO_COUNT>
1

> <PUBCHEM_BOND_DEF_STEREO_COUNT>
0

> <PUBCHEM_BOND_UDEF_STEREO_COUNT>
0

> <PUBCHEM_ISOTOPIC_ATOM_COUNT>
0

> <PUBCHEM_COMPONENT_COUNT>
1

> <PUBCHEM_CACTVS_TAUTO_COUNT>
2

> <PUBCHEM_CONFORMER_ID>
02A5CECF00000001

> <PUBCHEM_MMFF94_ENERGY>
117.191

> <PUBCHEM_FEATURE_SELFOVERLAP>
50.761

> <PUBCHEM_SHAPE_FINGERPRINT>
10675989 125 17690560780162819265
11479125 193 17982739567543004497
11693224 71 18046614613285115733
14856354 85 17901399101774525406
14950920 106 17459751625877406090
15326921 28 18270664429653316424
15444296 121 18260269655351725564
16067690 210 18190160464167981272
16993438 75 18412258437129254209
19053607 189 18125706903670066968
19304152 47 18337960107519564298
19315092 285 16374401772070650979
25223398 141 18339662057393812092
3418910 222 17404009814244891548
376196 1 18124590878050553015
5047190 92 18124600782583520337
508180 173 17336195862121764679
550186 7 18408047316226673330
5776283 40 17763481525324543950
7288768 16 18262796238514307877
9849439 229 18118688721192124285
9981440 41 18340761542850668719
9982175 41 18113057142466030133

> <PUBCHEM_SHAPE_MULTIPOLES>
692.71
15.32
7.87
2.7
29.22
7.75
1.11
16.62
4.38
-16.2
-0.72
-0.32
-3.57
3.82

> <PUBCHEM_SHAPE_SELFOVERLAP>
1471.183

> <PUBCHEM_SHAPE_VOLUME>
386.5

> <PUBCHEM_COORDINATE_TYPE>
2
5
10

$$$$