122179401
  -OEChem-03242010103D

 84 88  0     1  0  0  0  0  0999 V2000
   -3.4882   -4.8750    1.4130 F   0  0  0  0  0  0  0  0  0  0  0  0
    3.7009    1.5516   -0.3960 O   0  0  0  0  0  0  0  0  0  0  0  0
    1.5218   -1.2629    0.5502 O   0  0  0  0  0  0  0  0  0  0  0  0
    3.7434   -2.5507   -0.2917 O   0  0  0  0  0  0  0  0  0  0  0  0
    6.0419   -2.5603   -1.5034 O   0  0  0  0  0  0  0  0  0  0  0  0
   -1.7449    3.2747   -0.2434 O   0  0  0  0  0  0  0  0  0  0  0  0
    1.0195    3.3234    3.6674 O   0  0  0  0  0  0  0  0  0  0  0  0
    7.8739    1.6686   -2.6367 O   0  0  0  0  0  0  0  0  0  0  0  0
   -1.2895    4.1129    2.3567 O   0  0  0  0  0  0  0  0  0  0  0  0
    2.2243   -2.2825    2.4908 O   0  0  0  0  0  0  0  0  0  0  0  0
   -2.5094   -0.2474   -0.3985 O   0  0  0  0  0  0  0  0  0  0  0  0
   -6.7336    2.2798   -1.5530 O   0  0  0  0  0  0  0  0  0  0  0  0
   -8.4712    0.2765   -2.3856 O   0  0  0  0  0  0  0  0  0  0  0  0
   -3.3404   -2.3194    0.3400 N   0  0  0  0  0  0  0  0  0  0  0  0
    2.4854    0.7965   -0.2706 C   0  0  1  0  0  0  0  0  0  0  0  0
    2.7204   -0.5094    0.4905 C   0  0  2  0  0  0  0  0  0  0  0  0
    1.4757    1.6840    0.4324 C   0  0  0  0  0  0  0  0  0  0  0  0
    3.7542   -1.3260   -0.2534 C   0  0  0  0  0  0  0  0  0  0  0  0
    4.8224   -0.5517   -0.9157 C   0  0  0  0  0  0  0  0  0  0  0  0
    4.7413    0.8426   -0.9343 C   0  0  0  0  0  0  0  0  0  0  0  0
    5.9157   -1.2038   -1.4923 C   0  0  0  0  0  0  0  0  0  0  0  0
    1.7089    2.1047    1.7417 C   0  0  0  0  0  0  0  0  0  0  0  0
    0.3139    2.0794   -0.2305 C   0  0  0  0  0  0  0  0  0  0  0  0
    5.7761    1.5882   -1.5018 C   0  0  0  0  0  0  0  0  0  0  0  0
   -0.6146    2.8955    0.4156 C   0  0  0  0  0  0  0  0  0  0  0  0
    0.7806    2.9209    2.3879 C   0  0  0  0  0  0  0  0  0  0  0  0
    6.8707    0.9401   -2.0747 C   0  0  0  0  0  0  0  0  0  0  0  0
    6.9378   -0.4531   -2.0741 C   0  0  0  0  0  0  0  0  0  0  0  0
   -0.3813    3.3161    1.7249 C   0  0  0  0  0  0  0  0  0  0  0  0
    1.3988   -2.1168    1.6063 C   0  0  0  0  0  0  0  0  0  0  0  0
    0.1052   -2.8436    1.5531 C   0  0  0  0  0  0  0  0  0  0  0  0
    6.7164   -3.1573   -0.3974 C   0  0  0  0  0  0  0  0  0  0  0  0
   -1.0104   -2.2410    0.9716 C   0  0  0  0  0  0  0  0  0  0  0  0
    0.0053   -4.1290    2.0855 C   0  0  0  0  0  0  0  0  0  0  0  0
   -2.2256   -2.9240    0.9221 C   0  0  0  0  0  0  0  0  0  0  0  0
   -1.6813    4.4853   -0.9951 C   0  0  0  0  0  0  0  0  0  0  0  0
    2.2308    2.8746    4.2721 C   0  0  0  0  0  0  0  0  0  0  0  0
    8.9632    0.9428   -3.2046 C   0  0  0  0  0  0  0  0  0  0  0  0
   -2.3207    3.4597    3.0937 C   0  0  0  0  0  0  0  0  0  0  0  0
   -1.2098   -4.8120    2.0362 C   0  0  0  0  0  0  0  0  0  0  0  0
   -2.3253   -4.2094    1.4544 C   0  0  0  0  0  0  0  0  0  0  0  0
   -3.4194   -1.0590   -0.2671 C   0  0  0  0  0  0  0  0  0  0  0  0
   -4.7503   -0.7031   -0.8252 C   0  0  0  0  0  0  0  0  0  0  0  0
   -5.1276    0.6356   -0.9311 C   0  0  0  0  0  0  0  0  0  0  0  0
   -5.6224   -1.7085   -1.2429 C   0  0  0  0  0  0  0  0  0  0  0  0
   -6.3766    0.9690   -1.4550 C   0  0  0  0  0  0  0  0  0  0  0  0
   -7.2484   -0.0364   -1.8728 C   0  0  0  0  0  0  0  0  0  0  0  0
   -6.8714   -1.3753   -1.7667 C   0  0  0  0  0  0  0  0  0  0  0  0
   -5.7844    3.2453   -1.1037 C   0  0  0  0  0  0  0  0  0  0  0  0
   -9.3018   -0.8105   -2.7890 C   0  0  0  0  0  0  0  0  0  0  0  0
    2.1134    0.5783   -1.2827 H   0  0  0  0  0  0  0  0  0  0  0  0
    3.1326   -0.3136    1.4890 H   0  0  0  0  0  0  0  0  0  0  0  0
    2.6333    1.7825    2.2071 H   0  0  0  0  0  0  0  0  0  0  0  0
    0.1231    1.7543   -1.2503 H   0  0  0  0  0  0  0  0  0  0  0  0
    5.7268    2.6744   -1.5071 H   0  0  0  0  0  0  0  0  0  0  0  0
    7.7631   -1.0095   -2.5069 H   0  0  0  0  0  0  0  0  0  0  0  0
   -0.8891   -1.2354    0.5971 H   0  0  0  0  0  0  0  0  0  0  0  0
    6.5588   -4.2383   -0.4429 H   0  0  0  0  0  0  0  0  0  0  0  0
    6.3294   -2.7861    0.5571 H   0  0  0  0  0  0  0  0  0  0  0  0
    7.7904   -2.9574   -0.4640 H   0  0  0  0  0  0  0  0  0  0  0  0
    0.8659   -4.6133    2.5394 H   0  0  0  0  0  0  0  0  0  0  0  0
   -1.4425    5.3318   -0.3435 H   0  0  0  0  0  0  0  0  0  0  0  0
   -0.9359    4.4022   -1.7923 H   0  0  0  0  0  0  0  0  0  0  0  0
   -2.6606    4.6593   -1.4488 H   0  0  0  0  0  0  0  0  0  0  0  0
    2.2531    1.7839    4.3717 H   0  0  0  0  0  0  0  0  0  0  0  0
    2.2550    3.2856    5.2868 H   0  0  0  0  0  0  0  0  0  0  0  0
    3.1114    3.2655    3.7510 H   0  0  0  0  0  0  0  0  0  0  0  0
    9.6682    1.6792   -3.6042 H   0  0  0  0  0  0  0  0  0  0  0  0
    8.6383    0.3226   -4.0469 H   0  0  0  0  0  0  0  0  0  0  0  0
    9.5016    0.3650   -2.4456 H   0  0  0  0  0  0  0  0  0  0  0  0
   -2.9306    2.8358    2.4325 H   0  0  0  0  0  0  0  0  0  0  0  0
   -1.8940    2.8500    3.8965 H   0  0  0  0  0  0  0  0  0  0  0  0
   -2.9610    4.2258    3.5394 H   0  0  0  0  0  0  0  0  0  0  0  0
   -1.2878   -5.8130    2.4500 H   0  0  0  0  0  0  0  0  0  0  0  0
   -4.1870   -2.8777    0.4035 H   0  0  0  0  0  0  0  0  0  0  0  0
   -4.4168    1.3785   -0.5854 H   0  0  0  0  0  0  0  0  0  0  0  0
   -5.3563   -2.7609   -1.2139 H   0  0  0  0  0  0  0  0  0  0  0  0
   -7.4932   -2.2073   -2.0786 H   0  0  0  0  0  0  0  0  0  0  0  0
   -6.2328    4.2327   -1.2561 H   0  0  0  0  0  0  0  0  0  0  0  0
   -4.8676    3.2179   -1.7023 H   0  0  0  0  0  0  0  0  0  0  0  0
   -5.5864    3.1495   -0.0306 H   0  0  0  0  0  0  0  0  0  0  0  0
  -10.2338   -0.3797   -3.1698 H   0  0  0  0  0  0  0  0  0  0  0  0
   -9.5706   -1.4497   -1.9411 H   0  0  0  0  0  0  0  0  0  0  0  0
   -8.8538   -1.3766   -3.6128 H   0  0  0  0  0  0  0  0  0  0  0  0
  1 41  1  0  0  0  0
  2 15  1  0  0  0  0
  2 20  1  0  0  0  0
  3 16  1  0  0  0  0
  3 30  1  0  0  0  0
  4 18  2  0  0  0  0
  5 21  1  0  0  0  0
  5 32  1  0  0  0  0
  6 25  1  0  0  0  0
  6 36  1  0  0  0  0
  7 26  1  0  0  0  0
  7 37  1  0  0  0  0
  8 27  1  0  0  0  0
  8 38  1  0  0  0  0
  9 29  1  0  0  0  0
  9 39  1  0  0  0  0
 10 30  2  0  0  0  0
 11 42  2  0  0  0  0
 12 46  1  0  0  0  0
 12 49  1  0  0  0  0
 13 47  1  0  0  0  0
 13 50  1  0  0  0  0
 14 35  1  0  0  0  0
 14 42  1  0  0  0  0
 14 75  1  0  0  0  0
 15 16  1  0  0  0  0
 15 17  1  0  0  0  0
 15 51  1  0  0  0  0
 16 18  1  0  0  0  0
 16 52  1  0  0  0  0
 17 22  2  0  0  0  0
 17 23  1  0  0  0  0
 18 19  1  0  0  0  0
 19 20  2  0  0  0  0
 19 21  1  0  0  0  0
 20 24  1  0  0  0  0
 21 28  2  0  0  0  0
 22 26  1  0  0  0  0
 22 53  1  0  0  0  0
 23 25  2  0  0  0  0
 23 54  1  0  0  0  0
 24 27  2  0  0  0  0
 24 55  1  0  0  0  0
 25 29  1  0  0  0  0
 26 29  2  0  0  0  0
 27 28  1  0  0  0  0
 28 56  1  0  0  0  0
 30 31  1  0  0  0  0
 31 33  2  0  0  0  0
 31 34  1  0  0  0  0
 32 58  1  0  0  0  0
 32 59  1  0  0  0  0
 32 60  1  0  0  0  0
 33 35  1  0  0  0  0
 33 57  1  0  0  0  0
 34 40  2  0  0  0  0
 34 61  1  0  0  0  0
 35 41  2  0  0  0  0
 36 62  1  0  0  0  0
 36 63  1  0  0  0  0
 36 64  1  0  0  0  0
 37 65  1  0  0  0  0
 37 66  1  0  0  0  0
 37 67  1  0  0  0  0
 38 68  1  0  0  0  0
 38 69  1  0  0  0  0
 38 70  1  0  0  0  0
 39 71  1  0  0  0  0
 39 72  1  0  0  0  0
 39 73  1  0  0  0  0
 40 41  1  0  0  0  0
 40 74  1  0  0  0  0
 42 43  1  0  0  0  0
 43 44  2  0  0  0  0
 43 45  1  0  0  0  0
 44 46  1  0  0  0  0
 44 76  1  0  0  0  0
 45 48  2  0  0  0  0
 45 77  1  0  0  0  0
 46 47  2  0  0  0  0
 47 48  1  0  0  0  0
 48 78  1  0  0  0  0
 49 79  1  0  0  0  0
 49 80  1  0  0  0  0
 49 81  1  0  0  0  0
 50 82  1  0  0  0  0
 50 83  1  0  0  0  0
 50 84  1  0  0  0  0
M  END
> <PUBCHEM_COMPOUND_CID>
122179401

> <PUBCHEM_CONFORMER_RMSD>
1.4

> <PUBCHEM_CONFORMER_DIVERSEORDER>
1
8
13
20
25
23
9
22
15
5
17
24
6
14
21
12
7
2
11
18
16
19
4
3
10

> <PUBCHEM_MMFF94_PARTIAL_CHARGES>
61
1 -0.19
10 -0.57
11 -0.57
12 -0.36
13 -0.36
14 -0.55
15 0.42
16 0.34
17 -0.14
18 0.42
19 0.09
2 -0.36
20 0.08
21 0.08
22 -0.15
23 -0.15
24 -0.15
25 0.08
26 0.08
27 0.08
28 -0.15
29 0.08
3 -0.43
30 0.63
31 0.09
32 0.28
33 -0.15
34 -0.15
35 0.12
36 0.28
37 0.28
38 0.28
39 0.28
4 -0.57
40 -0.15
41 0.19
42 0.54
43 0.09
44 -0.15
45 -0.15
46 0.08
47 0.08
48 -0.15
49 0.28
5 -0.36
50 0.28
53 0.15
54 0.15
55 0.15
56 0.15
57 0.15
6 -0.36
61 0.15
7 -0.36
74 0.15
75 0.37
76 0.15
77 0.15
78 0.15
8 -0.36
9 -0.36

> <PUBCHEM_EFFECTIVE_ROTOR_COUNT>
14.6

> <PUBCHEM_PHARMACOPHORE_FEATURES>
17
1 10 acceptor
1 11 acceptor
1 12 acceptor
1 13 acceptor
1 14 donor
1 2 acceptor
1 4 acceptor
1 5 acceptor
1 6 acceptor
1 7 acceptor
1 8 acceptor
1 9 acceptor
6 17 22 23 25 26 29 rings
6 19 20 21 24 27 28 rings
6 2 15 16 18 19 20 rings
6 31 33 34 35 40 41 rings
6 43 44 45 46 47 48 rings

> <PUBCHEM_HEAVY_ATOM_COUNT>
50

> <PUBCHEM_ATOM_DEF_STEREO_COUNT>
2

> <PUBCHEM_ATOM_UDEF_STEREO_COUNT>
0

> <PUBCHEM_BOND_DEF_STEREO_COUNT>
0

> <PUBCHEM_BOND_UDEF_STEREO_COUNT>
0

> <PUBCHEM_ISOTOPIC_ATOM_COUNT>
0

> <PUBCHEM_COMPONENT_COUNT>
1

> <PUBCHEM_CACTVS_TAUTO_COUNT>
4

> <PUBCHEM_CONFORMER_ID>
07484F4900000001

> <PUBCHEM_MMFF94_ENERGY>
220.7311

> <PUBCHEM_FEATURE_SELFOVERLAP>
86.345

> <PUBCHEM_SHAPE_FINGERPRINT>
10190206 1 18337406984619861620
11115154 58 17846785096359049329
1200032 147 16732977635040692658
12124843 1 18410570657010759791
12788726 201 18343028753186717634
13165053 182 17824283693981837852
14340393 91 17989209243567099261
14664723 55 17676214571407127607
14931854 50 18409165511099291807
15264996 19 18198624329186860429
15351339 4 18336536132629149187
15406563 185 18201146715997284153
15781502 685 18338230475161733990
15968369 26 17979902036752225721
16992727 255 17895202138164467230
21133410 62 18260838051766088979
508180 173 18411414012563002779
513532 50 18128515232354596907
5776283 40 18187084009359184661

> <PUBCHEM_SHAPE_MULTIPOLES>
946.29
21.33
6.49
3.57
4.83
1.5
2.06
1.32
-31.76
3.24
5.98
-1.33
-2.31
0.58

> <PUBCHEM_SHAPE_SELFOVERLAP>
2065.913

> <PUBCHEM_SHAPE_VOLUME>
518

> <PUBCHEM_COORDINATE_TYPE>
2
5
10

$$$$