36
 OpenBabel03292022263D

 89 93  0  0  1  0  0  0  0  0999 V2000
    1.3524    0.4941    0.4448 C   0  0  0  0  0  0  0  0  0  0  0  0
    2.6143   -0.0896    0.1313 O   0  0  0  0  0  0  0  0  0  0  0  0
    3.2796    0.4197   -0.9484 C   0  0  0  0  0  0  0  0  0  0  0  0
    4.4829   -0.2108   -1.2677 C   0  0  0  0  0  0  0  0  0  0  0  0
    5.2686    0.2048   -2.3563 C   0  0  0  0  0  0  0  0  0  0  0  0
    6.4548   -0.4642   -2.4676 O   0  0  0  0  0  0  0  0  0  0  0  0
    6.8521   -0.8624   -3.7720 C   0  0  0  0  0  0  0  0  0  0  0  0
    4.8425    1.2857   -3.1498 C   0  0  0  0  0  0  0  0  0  0  0  0
    3.6046    1.8829   -2.8407 C   0  0  0  0  0  0  0  0  0  0  0  0
    2.8458    1.4746   -1.7402 C   0  0  0  0  0  0  0  0  0  0  0  0
    3.0186    2.8754   -3.5863 O   0  0  0  0  0  0  0  0  0  0  0  0
    3.5452    3.0338   -4.9217 C   0  0  2  0  0  0  0  0  0  0  0  0
    3.0042    1.9703   -5.8918 C   0  0  0  0  0  0  0  0  0  0  0  0
    2.0732    0.9969   -5.4804 C   0  0  0  0  0  0  0  0  0  0  0  0
    1.6331   -0.0175   -6.3315 C   0  0  0  0  0  0  0  0  0  0  0  0
    0.7656   -1.0167   -5.9566 O   0  0  0  0  0  0  0  0  0  0  0  0
    0.1396   -0.8936   -4.6846 C   0  0  0  0  0  0  0  0  0  0  0  0
    2.0894   -0.0432   -7.6663 C   0  0  0  0  0  0  0  0  0  0  0  0
    1.6598   -1.1094   -8.4267 O   0  0  0  0  0  0  0  0  0  0  0  0
    1.2236   -0.7736   -9.7408 C   0  0  0  0  0  0  0  0  0  0  0  0
    2.9873    0.9415   -8.1130 C   0  0  0  0  0  0  0  0  0  0  0  0
    3.4757    0.8376   -9.3875 O   0  0  0  0  0  0  0  0  0  0  0  0
    3.7516    2.0685  -10.0478 C   0  0  0  0  0  0  0  0  0  0  0  0
    3.4265    1.9425   -7.2280 C   0  0  0  0  0  0  0  0  0  0  0  0
    5.0818    3.1462   -4.8354 C   0  0  1  0  0  0  0  0  0  0  0  0
    5.4734    4.1700   -3.8838 O   0  0  0  0  0  0  0  0  0  0  0  0
    5.4551    5.4579   -4.2904 C   0  0  0  0  0  0  0  0  0  0  0  0
    5.1960    5.8432   -5.4158 O   0  0  0  0  0  0  0  0  0  0  0  0
    5.8681    6.3216   -3.1463 C   0  0  0  0  0  0  0  0  0  0  0  0
    5.8056    5.8563   -1.8204 C   0  0  0  0  0  0  0  0  0  0  0  0
    6.2656    6.6515   -0.7703 C   0  0  0  0  0  0  0  0  0  0  0  0
    6.7824    7.9095   -1.0463 C   0  0  0  0  0  0  0  0  0  0  0  0
    7.2267    8.6730   -0.0353 F   0  0  0  0  0  0  0  0  0  0  0  0
    6.7898    8.4182   -2.3478 C   0  0  0  0  0  0  0  0  0  0  0  0
    7.2661    9.7360   -2.5214 N   0  0  0  0  0  0  0  0  0  0  0  0
    6.7723   10.6039   -3.4767 C   0  0  0  0  0  0  0  0  0  0  0  0
    5.8370   10.3395   -4.2234 O   0  0  0  0  0  0  0  0  0  0  0  0
    7.3906   11.9660   -3.5593 C   0  0  0  0  0  0  0  0  0  0  0  0
    7.0416   12.7314   -4.6782 C   0  0  0  0  0  0  0  0  0  0  0  0
    7.6226   13.9769   -4.9041 C   0  0  0  0  0  0  0  0  0  0  0  0
    7.3251   14.7560   -5.9978 O   0  0  0  0  0  0  0  0  0  0  0  0
    6.0864   14.4908   -6.6496 C   0  0  0  0  0  0  0  0  0  0  0  0
    8.5900   14.4723   -4.0057 C   0  0  0  0  0  0  0  0  0  0  0  0
    9.1810   15.6511   -4.3953 O   0  0  0  0  0  0  0  0  0  0  0  0
    9.5645   16.5621   -3.3768 C   0  0  0  0  0  0  0  0  0  0  0  0
    8.9307   13.7230   -2.8585 C   0  0  0  0  0  0  0  0  0  0  0  0
    9.8942   14.2333   -2.0281 O   0  0  0  0  0  0  0  0  0  0  0  0
   10.2759   13.4926   -0.8762 C   0  0  0  0  0  0  0  0  0  0  0  0
    8.3105   12.4815   -2.6376 C   0  0  0  0  0  0  0  0  0  0  0  0
    6.3396    7.6165   -3.4044 C   0  0  0  0  0  0  0  0  0  0  0  0
    5.6520    1.8344   -4.2958 C   0  0  0  0  0  0  0  0  0  0  0  0
    0.9581   -0.0083    1.3328 H   0  0  0  0  0  0  0  0  0  0  0  0
    0.6366    0.3427   -0.3713 H   0  0  0  0  0  0  0  0  0  0  0  0
    1.4562    1.5581    0.6836 H   0  0  0  0  0  0  0  0  0  0  0  0
    4.8261   -1.0353   -0.6508 H   0  0  0  0  0  0  0  0  0  0  0  0
    7.4388   -1.7817   -3.6819 H   0  0  0  0  0  0  0  0  0  0  0  0
    7.5193   -0.1052   -4.2049 H   0  0  0  0  0  0  0  0  0  0  0  0
    6.0078   -1.0677   -4.4353 H   0  0  0  0  0  0  0  0  0  0  0  0
    1.9092    1.9906   -1.5494 H   0  0  0  0  0  0  0  0  0  0  0  0
    3.1413    3.9966   -5.2630 H   0  0  0  0  0  0  0  0  0  0  0  0
    1.7156    1.0189   -4.4568 H   0  0  0  0  0  0  0  0  0  0  0  0
   -0.5760   -1.7142   -4.5802 H   0  0  0  0  0  0  0  0  0  0  0  0
   -0.4202    0.0452   -4.6098 H   0  0  0  0  0  0  0  0  0  0  0  0
    0.8680   -0.9852   -3.8710 H   0  0  0  0  0  0  0  0  0  0  0  0
    0.5160   -1.5436  -10.0635 H   0  0  0  0  0  0  0  0  0  0  0  0
    2.0623   -0.7983  -10.4419 H   0  0  0  0  0  0  0  0  0  0  0  0
    0.7059    0.1911   -9.7775 H   0  0  0  0  0  0  0  0  0  0  0  0
    3.8827    1.8521  -11.1137 H   0  0  0  0  0  0  0  0  0  0  0  0
    4.6864    2.5059   -9.6853 H   0  0  0  0  0  0  0  0  0  0  0  0
    2.9194    2.7726   -9.9479 H   0  0  0  0  0  0  0  0  0  0  0  0
    4.1499    2.6845   -7.5625 H   0  0  0  0  0  0  0  0  0  0  0  0
    5.5453    3.3657   -5.8042 H   0  0  0  0  0  0  0  0  0  0  0  0
    5.4019    4.8712   -1.5940 H   0  0  0  0  0  0  0  0  0  0  0  0
    6.2169    6.3012    0.2554 H   0  0  0  0  0  0  0  0  0  0  0  0
    7.7849   10.1047   -1.7369 H   0  0  0  0  0  0  0  0  0  0  0  0
    6.3302   12.3142   -5.3858 H   0  0  0  0  0  0  0  0  0  0  0  0
    5.9239   15.2754   -7.3936 H   0  0  0  0  0  0  0  0  0  0  0  0
    5.2513   14.5216   -5.9406 H   0  0  0  0  0  0  0  0  0  0  0  0
    6.1165   13.5348   -7.1824 H   0  0  0  0  0  0  0  0  0  0  0  0
    9.6614   17.5497   -3.8390 H   0  0  0  0  0  0  0  0  0  0  0  0
   10.5482   16.3055   -2.9744 H   0  0  0  0  0  0  0  0  0  0  0  0
    8.8104   16.6380   -2.5868 H   0  0  0  0  0  0  0  0  0  0  0  0
   11.0840   14.0389   -0.3802 H   0  0  0  0  0  0  0  0  0  0  0  0
   10.6640   12.5053   -1.1470 H   0  0  0  0  0  0  0  0  0  0  0  0
    9.4437   13.4130   -0.1692 H   0  0  0  0  0  0  0  0  0  0  0  0
    8.5605   11.9132   -1.7527 H   0  0  0  0  0  0  0  0  0  0  0  0
    6.3833    7.9752   -4.4313 H   0  0  0  0  0  0  0  0  0  0  0  0
    6.6799    2.0072   -3.9555 H   0  0  0  0  0  0  0  0  0  0  0  0
    5.6576    1.1025   -5.1104 H   0  0  0  0  0  0  0  0  0  0  0  0
  1  2  1  0  0  0  0
  1 52  1  0  0  0  0
  1 53  1  0  0  0  0
  1 54  1  0  0  0  0
  2  3  1  0  0  0  0
  3  4  1  0  0  0  0
  3 10  2  0  0  0  0
  4  5  2  0  0  0  0
  4 55  1  0  0  0  0
  5  6  1  0  0  0  0
  5  8  1  0  0  0  0
  6  7  1  0  0  0  0
  7 56  1  0  0  0  0
  7 57  1  0  0  0  0
  7 58  1  0  0  0  0
  8  9  2  0  0  0  0
  8 51  1  0  0  0  0
  9 10  1  0  0  0  0
  9 11  1  0  0  0  0
 10 59  1  0  0  0  0
 11 12  1  0  0  0  0
 12 13  1  0  0  0  0
 12 25  1  0  0  0  0
 12 60  1  6  0  0  0
 13 14  1  0  0  0  0
 13 24  2  0  0  0  0
 14 15  2  0  0  0  0
 14 61  1  0  0  0  0
 15 16  1  0  0  0  0
 15 18  1  0  0  0  0
 16 17  1  0  0  0  0
 17 62  1  0  0  0  0
 17 63  1  0  0  0  0
 17 64  1  0  0  0  0
 18 19  1  0  0  0  0
 18 21  2  0  0  0  0
 19 20  1  0  0  0  0
 20 65  1  0  0  0  0
 20 66  1  0  0  0  0
 20 67  1  0  0  0  0
 21 22  1  0  0  0  0
 21 24  1  0  0  0  0
 22 23  1  0  0  0  0
 23 68  1  0  0  0  0
 23 69  1  0  0  0  0
 23 70  1  0  0  0  0
 24 71  1  0  0  0  0
 25 26  1  0  0  0  0
 25 51  1  0  0  0  0
 25 72  1  6  0  0  0
 26 27  1  0  0  0  0
 27 28  2  0  0  0  0
 27 29  1  0  0  0  0
 29 30  1  0  0  0  0
 29 50  2  0  0  0  0
 30 31  2  0  0  0  0
 30 73  1  0  0  0  0
 31 32  1  0  0  0  0
 31 74  1  0  0  0  0
 32 33  1  0  0  0  0
 32 34  2  0  0  0  0
 34 35  1  0  0  0  0
 34 50  1  0  0  0  0
 35 36  1  0  0  0  0
 35 75  1  0  0  0  0
 36 37  2  0  0  0  0
 36 38  1  0  0  0  0
 38 39  1  0  0  0  0
 38 49  2  0  0  0  0
 39 40  2  0  0  0  0
 39 76  1  0  0  0  0
 40 41  1  0  0  0  0
 40 43  1  0  0  0  0
 41 42  1  0  0  0  0
 42 77  1  0  0  0  0
 42 78  1  0  0  0  0
 42 79  1  0  0  0  0
 43 44  1  0  0  0  0
 43 46  2  0  0  0  0
 44 45  1  0  0  0  0
 45 80  1  0  0  0  0
 45 81  1  0  0  0  0
 45 82  1  0  0  0  0
 46 47  1  0  0  0  0
 46 49  1  0  0  0  0
 47 48  1  0  0  0  0
 48 83  1  0  0  0  0
 48 84  1  0  0  0  0
 48 85  1  0  0  0  0
 49 86  1  0  0  0  0
 50 87  1  0  0  0  0
 51 88  1  0  0  0  0
 51 89  1  0  0  0  0
M  END
>  <Energy>
203.098

$$$$