37
 OpenBabel03292022263D

 89 93  0  0  1  0  0  0  0  0999 V2000
    1.3682    0.4042   -0.0922 C   0  0  0  0  0  0  0  0  0  0  0  0
    2.6439   -0.1895    0.1295 O   0  0  0  0  0  0  0  0  0  0  0  0
    3.2950   -0.6850   -0.9656 C   0  0  0  0  0  0  0  0  0  0  0  0
    4.5129   -1.3185   -0.7086 C   0  0  0  0  0  0  0  0  0  0  0  0
    5.2984   -1.8692   -1.7372 C   0  0  0  0  0  0  0  0  0  0  0  0
    6.4859   -2.3826   -1.2885 O   0  0  0  0  0  0  0  0  0  0  0  0
    6.9816   -3.5643   -1.9041 C   0  0  0  0  0  0  0  0  0  0  0  0
    4.8621   -1.7732   -3.0664 C   0  0  0  0  0  0  0  0  0  0  0  0
    3.6091   -1.1740   -3.3009 C   0  0  0  0  0  0  0  0  0  0  0  0
    2.8465   -0.6127   -2.2743 C   0  0  0  0  0  0  0  0  0  0  0  0
    2.9899   -1.1440   -4.5313 O   0  0  0  0  0  0  0  0  0  0  0  0
    3.5074   -2.0950   -5.4883 C   0  0  2  0  0  0  0  0  0  0  0  0
    3.0415   -3.5332   -5.1957 C   0  0  0  0  0  0  0  0  0  0  0  0
    2.1612   -3.8214   -4.1414 C   0  0  0  0  0  0  0  0  0  0  0  0
    1.7599   -5.1264   -3.8325 C   0  0  0  0  0  0  0  0  0  0  0  0
    0.9300   -5.4161   -2.7710 O   0  0  0  0  0  0  0  0  0  0  0  0
    0.1757   -4.3263   -2.2458 C   0  0  0  0  0  0  0  0  0  0  0  0
    2.2274   -6.2015   -4.6124 C   0  0  0  0  0  0  0  0  0  0  0  0
    1.8222   -7.4528   -4.2071 O   0  0  0  0  0  0  0  0  0  0  0  0
    1.5574   -8.4113   -5.2263 C   0  0  0  0  0  0  0  0  0  0  0  0
    3.1069   -5.9369   -5.6855 C   0  0  0  0  0  0  0  0  0  0  0  0
    3.5969   -7.0073   -6.3871 O   0  0  0  0  0  0  0  0  0  0  0  0
    4.4695   -6.7548   -7.4790 C   0  0  0  0  0  0  0  0  0  0  0  0
    3.4879   -4.6090   -5.9695 C   0  0  0  0  0  0  0  0  0  0  0  0
    5.0324   -1.8845   -5.5863 C   0  0  1  0  0  0  0  0  0  0  0  0
    5.3574   -0.4821   -5.7985 O   0  0  0  0  0  0  0  0  0  0  0  0
    5.2755    0.0102   -7.0546 C   0  0  0  0  0  0  0  0  0  0  0  0
    5.0129   -0.6307   -8.0513 O   0  0  0  0  0  0  0  0  0  0  0  0
    5.6196    1.4659   -7.0214 C   0  0  0  0  0  0  0  0  0  0  0  0
    5.5149    2.2112   -5.8346 C   0  0  0  0  0  0  0  0  0  0  0  0
    5.8656    3.5693   -5.8282 C   0  0  0  0  0  0  0  0  0  0  0  0
    6.3276    4.1659   -6.9945 C   0  0  0  0  0  0  0  0  0  0  0  0
    6.6361    5.4719   -6.9838 F   0  0  0  0  0  0  0  0  0  0  0  0
    6.3994    3.4474   -8.1895 C   0  0  0  0  0  0  0  0  0  0  0  0
    6.8247    4.1247   -9.3550 N   0  0  0  0  0  0  0  0  0  0  0  0
    6.1050    4.0475  -10.5289 C   0  0  0  0  0  0  0  0  0  0  0  0
    5.0734    3.3988  -10.6816 O   0  0  0  0  0  0  0  0  0  0  0  0
    6.6687    4.8801  -11.6236 C   0  0  0  0  0  0  0  0  0  0  0  0
    6.0116    4.9445  -12.7943 C   0  0  0  0  0  0  0  0  0  0  0  0
    6.5242    5.5871  -14.0135 C   0  0  0  0  0  0  0  0  0  0  0  0
    5.6348    6.1451  -14.9309 C   0  0  0  0  0  0  0  0  0  0  0  0
    6.1093    6.6739  -16.1343 C   0  0  0  0  0  0  0  0  0  0  0  0
    7.4747    6.6464  -16.4560 C   0  0  0  0  0  0  0  0  0  0  0  0
    7.7319    7.2209  -17.6738 O   0  0  0  0  0  0  0  0  0  0  0  0
    9.0763    7.3050  -18.1229 C   0  0  0  0  0  0  0  0  0  0  0  0
    8.3779    6.0597  -15.5532 C   0  0  0  0  0  0  0  0  0  0  0  0
    9.7013    5.9933  -15.8992 O   0  0  0  0  0  0  0  0  0  0  0  0
   10.6137    5.4174  -14.9740 C   0  0  0  0  0  0  0  0  0  0  0  0
    7.8868    5.5403  -14.3429 C   0  0  0  0  0  0  0  0  0  0  0  0
    6.0463    2.0907   -8.2043 C   0  0  0  0  0  0  0  0  0  0  0  0
    5.6680   -2.2594   -4.2463 C   0  0  0  0  0  0  0  0  0  0  0  0
    1.0340    0.8422    0.8532 H   0  0  0  0  0  0  0  0  0  0  0  0
    0.6359   -0.3529   -0.3909 H   0  0  0  0  0  0  0  0  0  0  0  0
    1.4183    1.2149   -0.8266 H   0  0  0  0  0  0  0  0  0  0  0  0
    4.8611   -1.3909    0.3201 H   0  0  0  0  0  0  0  0  0  0  0  0
    7.6602   -4.0523   -1.1980 H   0  0  0  0  0  0  0  0  0  0  0  0
    7.5804   -3.3108   -2.7831 H   0  0  0  0  0  0  0  0  0  0  0  0
    6.1880   -4.2779   -2.1495 H   0  0  0  0  0  0  0  0  0  0  0  0
    1.8962   -0.1596   -2.5358 H   0  0  0  0  0  0  0  0  0  0  0  0
    3.0461   -1.8105   -6.4420 H   0  0  0  0  0  0  0  0  0  0  0  0
    1.8003   -3.0049   -3.5308 H   0  0  0  0  0  0  0  0  0  0  0  0
   -0.5460   -4.7208   -1.5246 H   0  0  0  0  0  0  0  0  0  0  0  0
   -0.3893   -3.8225   -3.0389 H   0  0  0  0  0  0  0  0  0  0  0  0
    0.8159   -3.6164   -1.7098 H   0  0  0  0  0  0  0  0  0  0  0  0
    1.0127   -9.2453   -4.7683 H   0  0  0  0  0  0  0  0  0  0  0  0
    2.4791   -8.8412   -5.6254 H   0  0  0  0  0  0  0  0  0  0  0  0
    0.9269   -7.9995   -6.0218 H   0  0  0  0  0  0  0  0  0  0  0  0
    4.7439   -7.7177   -7.9192 H   0  0  0  0  0  0  0  0  0  0  0  0
    5.3912   -6.2698   -7.1409 H   0  0  0  0  0  0  0  0  0  0  0  0
    3.9680   -6.1647   -8.2530 H   0  0  0  0  0  0  0  0  0  0  0  0
    4.1550   -4.3939   -6.7983 H   0  0  0  0  0  0  0  0  0  0  0  0
    5.4909   -2.4816   -6.3830 H   0  0  0  0  0  0  0  0  0  0  0  0
    5.1580    1.7594   -4.9175 H   0  0  0  0  0  0  0  0  0  0  0  0
    5.7636    4.1598   -4.9228 H   0  0  0  0  0  0  0  0  0  0  0  0
    7.3742    4.9647   -9.2102 H   0  0  0  0  0  0  0  0  0  0  0  0
    7.6257    5.3580  -11.4647 H   0  0  0  0  0  0  0  0  0  0  0  0
    5.0431    4.4559  -12.9019 H   0  0  0  0  0  0  0  0  0  0  0  0
    4.5660    6.1704  -14.7288 H   0  0  0  0  0  0  0  0  0  0  0  0
    5.4035    7.1053  -16.8417 H   0  0  0  0  0  0  0  0  0  0  0  0
    9.0809    7.8845  -19.0515 H   0  0  0  0  0  0  0  0  0  0  0  0
    9.4728    6.3119  -18.3573 H   0  0  0  0  0  0  0  0  0  0  0  0
    9.7087    7.8454  -17.4114 H   0  0  0  0  0  0  0  0  0  0  0  0
   11.6130    5.4634  -15.4168 H   0  0  0  0  0  0  0  0  0  0  0  0
   10.3804    4.3632  -14.7925 H   0  0  0  0  0  0  0  0  0  0  0  0
   10.6379    5.9874  -14.0391 H   0  0  0  0  0  0  0  0  0  0  0  0
    8.5592    5.0545  -13.6454 H   0  0  0  0  0  0  0  0  0  0  0  0
    6.1263    1.5131   -9.1233 H   0  0  0  0  0  0  0  0  0  0  0  0
    6.6724   -1.8228   -4.1958 H   0  0  0  0  0  0  0  0  0  0  0  0
    5.7430   -3.3505   -4.2025 H   0  0  0  0  0  0  0  0  0  0  0  0
  1  2  1  0  0  0  0
  1 52  1  0  0  0  0
  1 53  1  0  0  0  0
  1 54  1  0  0  0  0
  2  3  1  0  0  0  0
  3  4  1  0  0  0  0
  3 10  2  0  0  0  0
  4  5  2  0  0  0  0
  4 55  1  0  0  0  0
  5  6  1  0  0  0  0
  5  8  1  0  0  0  0
  6  7  1  0  0  0  0
  7 56  1  0  0  0  0
  7 57  1  0  0  0  0
  7 58  1  0  0  0  0
  8  9  2  0  0  0  0
  8 51  1  0  0  0  0
  9 10  1  0  0  0  0
  9 11  1  0  0  0  0
 10 59  1  0  0  0  0
 11 12  1  0  0  0  0
 12 13  1  0  0  0  0
 12 25  1  0  0  0  0
 12 60  1  6  0  0  0
 13 14  1  0  0  0  0
 13 24  2  0  0  0  0
 14 15  2  0  0  0  0
 14 61  1  0  0  0  0
 15 16  1  0  0  0  0
 15 18  1  0  0  0  0
 16 17  1  0  0  0  0
 17 62  1  0  0  0  0
 17 63  1  0  0  0  0
 17 64  1  0  0  0  0
 18 19  1  0  0  0  0
 18 21  2  0  0  0  0
 19 20  1  0  0  0  0
 20 65  1  0  0  0  0
 20 66  1  0  0  0  0
 20 67  1  0  0  0  0
 21 22  1  0  0  0  0
 21 24  1  0  0  0  0
 22 23  1  0  0  0  0
 23 68  1  0  0  0  0
 23 69  1  0  0  0  0
 23 70  1  0  0  0  0
 24 71  1  0  0  0  0
 25 26  1  0  0  0  0
 25 51  1  0  0  0  0
 25 72  1  6  0  0  0
 26 27  1  0  0  0  0
 27 28  2  0  0  0  0
 27 29  1  0  0  0  0
 29 30  1  0  0  0  0
 29 50  2  0  0  0  0
 30 31  2  0  0  0  0
 30 73  1  0  0  0  0
 31 32  1  0  0  0  0
 31 74  1  0  0  0  0
 32 33  1  0  0  0  0
 32 34  2  0  0  0  0
 34 35  1  0  0  0  0
 34 50  1  0  0  0  0
 35 36  1  0  0  0  0
 35 75  1  0  0  0  0
 36 37  2  0  0  0  0
 36 38  1  0  0  0  0
 38 39  2  0  0  0  0
 38 76  1  0  0  0  0
 39 40  1  0  0  0  0
 39 77  1  0  0  0  0
 40 41  1  0  0  0  0
 40 49  2  0  0  0  0
 41 42  2  0  0  0  0
 41 78  1  0  0  0  0
 42 43  1  0  0  0  0
 42 79  1  0  0  0  0
 43 44  1  0  0  0  0
 43 46  2  0  0  0  0
 44 45  1  0  0  0  0
 45 80  1  0  0  0  0
 45 81  1  0  0  0  0
 45 82  1  0  0  0  0
 46 47  1  0  0  0  0
 46 49  1  0  0  0  0
 47 48  1  0  0  0  0
 48 83  1  0  0  0  0
 48 84  1  0  0  0  0
 48 85  1  0  0  0  0
 49 86  1  0  0  0  0
 50 87  1  0  0  0  0
 51 88  1  0  0  0  0
 51 89  1  0  0  0  0
M  END
>  <Energy>
177.56

$$$$