122179375
  -OEChem-03242010103D

 75 78  0     1  0  0  0  0  0999 V2000
    2.8741    0.1631   -0.8472 O   0  0  0  0  0  0  0  0  0  0  0  0
    0.5678    0.3032    0.8724 O   0  0  0  0  0  0  0  0  0  0  0  0
    3.2019    4.1972    1.8156 O   0  0  0  0  0  0  0  0  0  0  0  0
    4.3784    4.2080   -2.7947 O   0  0  0  0  0  0  0  0  0  0  0  0
    0.0182   -3.6365   -2.3461 O   0  0  0  0  0  0  0  0  0  0  0  0
    2.6699   -5.4327    1.2147 O   0  0  0  0  0  0  0  0  0  0  0  0
    0.8834   -5.8124   -0.8675 O   0  0  0  0  0  0  0  0  0  0  0  0
   -0.3385    0.1719    2.9935 O   0  0  0  0  0  0  0  0  0  0  0  0
   -5.7909    0.5226   -2.1514 O   0  0  0  0  0  0  0  0  0  0  0  0
   -7.9125    1.4344   -0.6037 O   0  0  0  0  0  0  0  0  0  0  0  0
    1.8761    0.0898    1.4044 C   0  0  1  0  0  0  0  0  0  0  0  0
    2.7614   -0.6050    0.3617 C   0  0  1  0  0  0  0  0  0  0  0  0
    2.4921    1.4368    1.7771 C   0  0  0  0  0  0  0  0  0  0  0  0
    2.9974    2.1573    0.5564 C   0  0  0  0  0  0  0  0  0  0  0  0
    2.2585   -1.9983    0.0326 C   0  0  0  0  0  0  0  0  0  0  0  0
    3.1653    1.4902   -0.6636 C   0  0  0  0  0  0  0  0  0  0  0  0
    3.3271    3.5170    0.6400 C   0  0  0  0  0  0  0  0  0  0  0  0
    3.6166    2.1823   -1.7904 C   0  0  0  0  0  0  0  0  0  0  0  0
    2.6963   -3.0918    0.7797 C   0  0  0  0  0  0  0  0  0  0  0  0
    1.3584   -2.1857   -1.0166 C   0  0  0  0  0  0  0  0  0  0  0  0
    3.7911    4.2033   -0.4828 C   0  0  0  0  0  0  0  0  0  0  0  0
    3.9316    3.5371   -1.6982 C   0  0  0  0  0  0  0  0  0  0  0  0
    0.8966   -3.4666   -1.3187 C   0  0  0  0  0  0  0  0  0  0  0  0
    2.2345   -4.3728    0.4775 C   0  0  0  0  0  0  0  0  0  0  0  0
    1.3346   -4.5602   -0.5717 C   0  0  0  0  0  0  0  0  0  0  0  0
   -0.4414    0.3193    1.7861 C   0  0  0  0  0  0  0  0  0  0  0  0
   -1.7072    0.5505    1.0539 C   0  0  0  0  0  0  0  0  0  0  0  0
    4.3369    4.2110    2.6781 C   0  0  0  0  0  0  0  0  0  0  0  0
    4.6823    5.5925   -2.6296 C   0  0  0  0  0  0  0  0  0  0  0  0
   -2.8617    0.6103    1.7326 C   0  0  0  0  0  0  0  0  0  0  0  0
   -0.3790   -2.4666   -3.0588 C   0  0  0  0  0  0  0  0  0  0  0  0
    3.5891   -5.1541    2.2691 C   0  0  0  0  0  0  0  0  0  0  0  0
   -0.3015   -6.2463   -0.2037 C   0  0  0  0  0  0  0  0  0  0  0  0
   -4.1838    0.8250    1.1179 C   0  0  0  0  0  0  0  0  0  0  0  0
   -4.3701    0.5710   -0.2409 C   0  0  0  0  0  0  0  0  0  0  0  0
   -5.2484    1.2824    1.8944 C   0  0  0  0  0  0  0  0  0  0  0  0
   -5.6212    0.7743   -0.8233 C   0  0  0  0  0  0  0  0  0  0  0  0
   -6.4995    1.4859    1.3118 C   0  0  0  0  0  0  0  0  0  0  0  0
   -6.6858    1.2318   -0.0470 C   0  0  0  0  0  0  0  0  0  0  0  0
   -4.6521    0.0576   -2.8734 C   0  0  0  0  0  0  0  0  0  0  0  0
   -8.9465    1.9031    0.2598 C   0  0  0  0  0  0  0  0  0  0  0  0
    1.8201   -0.5428    2.3004 H   0  0  0  0  0  0  0  0  0  0  0  0
    3.7822   -0.7105    0.7582 H   0  0  0  0  0  0  0  0  0  0  0  0
    3.3419    1.2658    2.4484 H   0  0  0  0  0  0  0  0  0  0  0  0
    1.7540    2.0572    2.2981 H   0  0  0  0  0  0  0  0  0  0  0  0
    3.7295    1.6641   -2.7397 H   0  0  0  0  0  0  0  0  0  0  0  0
    3.3930   -2.8842    1.5848 H   0  0  0  0  0  0  0  0  0  0  0  0
    1.0361   -1.3045   -1.5594 H   0  0  0  0  0  0  0  0  0  0  0  0
    4.0233    5.2546   -0.3478 H   0  0  0  0  0  0  0  0  0  0  0  0
   -1.6350    0.6793   -0.0197 H   0  0  0  0  0  0  0  0  0  0  0  0
    4.0517    4.7053    3.6108 H   0  0  0  0  0  0  0  0  0  0  0  0
    5.1535    4.7772    2.2190 H   0  0  0  0  0  0  0  0  0  0  0  0
    4.6725    3.1959    2.9098 H   0  0  0  0  0  0  0  0  0  0  0  0
    5.0214    5.9667   -3.6011 H   0  0  0  0  0  0  0  0  0  0  0  0
    3.7924    6.1704   -2.3578 H   0  0  0  0  0  0  0  0  0  0  0  0
    5.5068    5.7422   -1.9243 H   0  0  0  0  0  0  0  0  0  0  0  0
   -2.8668    0.5000    2.8146 H   0  0  0  0  0  0  0  0  0  0  0  0
   -1.0753   -2.7875   -3.8408 H   0  0  0  0  0  0  0  0  0  0  0  0
    0.4693   -1.9934   -3.5651 H   0  0  0  0  0  0  0  0  0  0  0  0
   -0.9261   -1.7681   -2.4160 H   0  0  0  0  0  0  0  0  0  0  0  0
    3.8285   -6.1094    2.7479 H   0  0  0  0  0  0  0  0  0  0  0  0
    3.1397   -4.5177    3.0391 H   0  0  0  0  0  0  0  0  0  0  0  0
    4.5311   -4.7463    1.8869 H   0  0  0  0  0  0  0  0  0  0  0  0
   -0.5329   -7.2595   -0.5435 H   0  0  0  0  0  0  0  0  0  0  0  0
   -1.1439   -5.5932   -0.4526 H   0  0  0  0  0  0  0  0  0  0  0  0
   -0.1504   -6.2672    0.8802 H   0  0  0  0  0  0  0  0  0  0  0  0
   -3.5349    0.1895   -0.8140 H   0  0  0  0  0  0  0  0  0  0  0  0
   -5.1198    1.4865    2.9548 H   0  0  0  0  0  0  0  0  0  0  0  0
   -7.2794    1.8426    1.9756 H   0  0  0  0  0  0  0  0  0  0  0  0
   -3.8479    0.8014   -2.8855 H   0  0  0  0  0  0  0  0  0  0  0  0
   -4.9669   -0.0829   -3.9129 H   0  0  0  0  0  0  0  0  0  0  0  0
   -4.3149   -0.9199   -2.5116 H   0  0  0  0  0  0  0  0  0  0  0  0
   -9.8510    2.0083   -0.3484 H   0  0  0  0  0  0  0  0  0  0  0  0
   -8.7173    2.8958    0.6622 H   0  0  0  0  0  0  0  0  0  0  0  0
   -9.1756    1.1765    1.0467 H   0  0  0  0  0  0  0  0  0  0  0  0
  1 12  1  0  0  0  0
  1 16  1  0  0  0  0
  2 11  1  0  0  0  0
  2 26  1  0  0  0  0
  3 17  1  0  0  0  0
  3 28  1  0  0  0  0
  4 22  1  0  0  0  0
  4 29  1  0  0  0  0
  5 23  1  0  0  0  0
  5 31  1  0  0  0  0
  6 24  1  0  0  0  0
  6 32  1  0  0  0  0
  7 25  1  0  0  0  0
  7 33  1  0  0  0  0
  8 26  2  0  0  0  0
  9 37  1  0  0  0  0
  9 40  1  0  0  0  0
 10 39  1  0  0  0  0
 10 41  1  0  0  0  0
 11 12  1  0  0  0  0
 11 13  1  0  0  0  0
 11 42  1  0  0  0  0
 12 15  1  0  0  0  0
 12 43  1  0  0  0  0
 13 14  1  0  0  0  0
 13 44  1  0  0  0  0
 13 45  1  0  0  0  0
 14 16  2  0  0  0  0
 14 17  1  0  0  0  0
 15 19  2  0  0  0  0
 15 20  1  0  0  0  0
 16 18  1  0  0  0  0
 17 21  2  0  0  0  0
 18 22  2  0  0  0  0
 18 46  1  0  0  0  0
 19 24  1  0  0  0  0
 19 47  1  0  0  0  0
 20 23  2  0  0  0  0
 20 48  1  0  0  0  0
 21 22  1  0  0  0  0
 21 49  1  0  0  0  0
 23 25  1  0  0  0  0
 24 25  2  0  0  0  0
 26 27  1  0  0  0  0
 27 30  2  0  0  0  0
 27 50  1  0  0  0  0
 28 51  1  0  0  0  0
 28 52  1  0  0  0  0
 28 53  1  0  0  0  0
 29 54  1  0  0  0  0
 29 55  1  0  0  0  0
 29 56  1  0  0  0  0
 30 34  1  0  0  0  0
 30 57  1  0  0  0  0
 31 58  1  0  0  0  0
 31 59  1  0  0  0  0
 31 60  1  0  0  0  0
 32 61  1  0  0  0  0
 32 62  1  0  0  0  0
 32 63  1  0  0  0  0
 33 64  1  0  0  0  0
 33 65  1  0  0  0  0
 33 66  1  0  0  0  0
 34 35  2  0  0  0  0
 34 36  1  0  0  0  0
 35 37  1  0  0  0  0
 35 67  1  0  0  0  0
 36 38  2  0  0  0  0
 36 68  1  0  0  0  0
 37 39  2  0  0  0  0
 38 39  1  0  0  0  0
 38 69  1  0  0  0  0
 40 70  1  0  0  0  0
 40 71  1  0  0  0  0
 40 72  1  0  0  0  0
 41 73  1  0  0  0  0
 41 74  1  0  0  0  0
 41 75  1  0  0  0  0
M  END
> <PUBCHEM_COMPOUND_CID>
122179375

> <PUBCHEM_CONFORMER_RMSD>
1.2

> <PUBCHEM_CONFORMER_DIVERSEORDER>
1
7
17
11
14
4
12
6
18
9
15
8
19
10
16
13
5
3
2

> <PUBCHEM_MMFF94_PARTIAL_CHARGES>
50
1 -0.36
10 -0.36
11 0.28
12 0.42
13 0.14
14 -0.14
15 -0.14
16 0.08
17 0.08
18 -0.15
19 -0.15
2 -0.43
20 -0.15
21 -0.15
22 0.08
23 0.08
24 0.08
25 0.08
26 0.71
27 -0.14
28 0.28
29 0.28
3 -0.36
30 -0.18
31 0.28
32 0.28
33 0.28
34 0.03
35 -0.15
36 -0.15
37 0.08
38 -0.15
39 0.08
4 -0.36
40 0.28
41 0.28
46 0.15
47 0.15
48 0.15
49 0.15
5 -0.36
50 0.15
57 0.15
6 -0.36
67 0.15
68 0.15
69 0.15
7 -0.36
8 -0.57
9 -0.36

> <PUBCHEM_EFFECTIVE_ROTOR_COUNT>
12.8

> <PUBCHEM_PHARMACOPHORE_FEATURES>
13
1 1 acceptor
1 10 acceptor
1 3 acceptor
1 4 acceptor
1 5 acceptor
1 6 acceptor
1 7 acceptor
1 8 acceptor
1 9 acceptor
6 1 11 12 13 14 16 rings
6 14 16 17 18 21 22 rings
6 15 19 20 23 24 25 rings
6 34 35 36 37 38 39 rings

> <PUBCHEM_HEAVY_ATOM_COUNT>
41

> <PUBCHEM_ATOM_DEF_STEREO_COUNT>
2

> <PUBCHEM_ATOM_UDEF_STEREO_COUNT>
0

> <PUBCHEM_BOND_DEF_STEREO_COUNT>
1

> <PUBCHEM_BOND_UDEF_STEREO_COUNT>
0

> <PUBCHEM_ISOTOPIC_ATOM_COUNT>
0

> <PUBCHEM_COMPONENT_COUNT>
1

> <PUBCHEM_CACTVS_TAUTO_COUNT>
1

> <PUBCHEM_CONFORMER_ID>
07484F2F00000001

> <PUBCHEM_MMFF94_ENERGY>
186.9417

> <PUBCHEM_FEATURE_SELFOVERLAP>
66.026

> <PUBCHEM_SHAPE_FINGERPRINT>
10462674 125 17694773035141806786
11062273 29 18340214011877638068
11331351 85 17548984351486643913
11505856 67 17324659158846813084
11991303 11 17979656832995083406
14675020 138 18201707492402011232
15198563 99 17042062723356880340
15484559 13 18202290229243286684
16989713 51 16758334267517521590
17899979 129 18335435572497473141
18365409 1 18130211766413077994
21033650 10 17694218177233441636
21304303 282 17837757191130323170
21772528 278 17981916307868321213
24941158 1 18115015308303447959
3534868 343 18198913521887343649
376196 1 17968668240604094848
44280116 191 18272662242129082733
44317340 157 18334017173334353801
45270241 37 18410579458179924629
474144 1 17845649249371473279
5223283 242 17687749338290345429
6677587 24 18115565141780299021
6695519 79 18054530233536439499

> <PUBCHEM_SHAPE_MULTIPOLES>
785.07
15.36
9.52
3.02
44.13
11.1
-0.9
-20.38
-1.57
-18.69
-1.78
-1.22
-1.42
-3.77

> <PUBCHEM_SHAPE_SELFOVERLAP>
1687.121

> <PUBCHEM_SHAPE_VOLUME>
436.3

> <PUBCHEM_COORDINATE_TYPE>
2
5
10

$$$$