122179376
  -OEChem-03242010103D

 79 82  0     1  0  0  0  0  0999 V2000
    3.2450    0.2958   -0.8057 O   0  0  0  0  0  0  0  0  0  0  0  0
    0.8676    0.3125    0.8199 O   0  0  0  0  0  0  0  0  0  0  0  0
    3.1601    4.4250    1.7268 O   0  0  0  0  0  0  0  0  0  0  0  0
    4.5167    4.3809   -2.8335 O   0  0  0  0  0  0  0  0  0  0  0  0
    0.7451   -3.7549   -2.2794 O   0  0  0  0  0  0  0  0  0  0  0  0
    3.3811   -5.2322    1.4364 O   0  0  0  0  0  0  0  0  0  0  0  0
    1.7121   -5.8119   -0.6970 O   0  0  0  0  0  0  0  0  0  0  0  0
   -0.1107    0.1788    2.9087 O   0  0  0  0  0  0  0  0  0  0  0  0
   -5.3644   -0.0552   -2.4454 O   0  0  0  0  0  0  0  0  0  0  0  0
   -7.3729    1.3516    1.6682 O   0  0  0  0  0  0  0  0  0  0  0  0
   -7.6049    0.7343   -1.0220 O   0  0  0  0  0  0  0  0  0  0  0  0
    2.1658    0.2170    1.4079 C   0  0  1  0  0  0  0  0  0  0  0  0
    3.1422   -0.4402    0.4238 C   0  0  1  0  0  0  0  0  0  0  0  0
    2.6629    1.6184    1.7569 C   0  0  0  0  0  0  0  0  0  0  0  0
    3.1610    2.3368    0.5319 C   0  0  0  0  0  0  0  0  0  0  0  0
    2.7595   -1.8777    0.1242 C   0  0  0  0  0  0  0  0  0  0  0  0
    3.4276    1.6464   -0.6572 C   0  0  0  0  0  0  0  0  0  0  0  0
    3.3834    3.7197    0.5809 C   0  0  0  0  0  0  0  0  0  0  0  0
    3.8703    2.3353   -1.7894 C   0  0  0  0  0  0  0  0  0  0  0  0
    3.2479   -2.9108    0.9239 C   0  0  0  0  0  0  0  0  0  0  0  0
    1.9190   -2.1660   -0.9511 C   0  0  0  0  0  0  0  0  0  0  0  0
    3.8389    4.4039   -0.5466 C   0  0  0  0  0  0  0  0  0  0  0  0
    4.0781    3.7126   -1.7321 C   0  0  0  0  0  0  0  0  0  0  0  0
    1.5669   -3.4872   -1.2265 C   0  0  0  0  0  0  0  0  0  0  0  0
    2.8958   -4.2322    0.6486 C   0  0  0  0  0  0  0  0  0  0  0  0
    2.0554   -4.5203   -0.4268 C   0  0  0  0  0  0  0  0  0  0  0  0
   -0.1759    0.2798    1.6938 C   0  0  0  0  0  0  0  0  0  0  0  0
   -1.4251    0.3899    0.9069 C   0  0  0  0  0  0  0  0  0  0  0  0
    4.2552    4.5531    2.6305 C   0  0  0  0  0  0  0  0  0  0  0  0
    4.7082    5.7891   -2.7048 C   0  0  0  0  0  0  0  0  0  0  0  0
   -2.6072    0.3822    1.5392 C   0  0  0  0  0  0  0  0  0  0  0  0
    0.2904   -2.6411   -3.0459 C   0  0  0  0  0  0  0  0  0  0  0  0
    4.2336   -4.8515    2.5146 C   0  0  0  0  0  0  0  0  0  0  0  0
    0.5376   -6.3148   -0.0640 C   0  0  0  0  0  0  0  0  0  0  0  0
   -3.9159    0.4753    0.8682 C   0  0  0  0  0  0  0  0  0  0  0  0
   -5.0419    0.8738    1.5883 C   0  0  0  0  0  0  0  0  0  0  0  0
   -4.0288    0.1640   -0.4869 C   0  0  0  0  0  0  0  0  0  0  0  0
   -5.2678    0.2511   -1.1216 C   0  0  0  0  0  0  0  0  0  0  0  0
   -6.2810    0.9612    0.9535 C   0  0  0  0  0  0  0  0  0  0  0  0
   -6.3939    0.6496   -0.4014 C   0  0  0  0  0  0  0  0  0  0  0  0
   -4.1654   -0.4537   -3.1075 C   0  0  0  0  0  0  0  0  0  0  0  0
   -7.6544    2.7494    1.7097 C   0  0  0  0  0  0  0  0  0  0  0  0
   -8.4170   -0.4377   -1.0179 C   0  0  0  0  0  0  0  0  0  0  0  0
    2.1217   -0.3895    2.3224 H   0  0  0  0  0  0  0  0  0  0  0  0
    4.1513   -0.4545    0.8619 H   0  0  0  0  0  0  0  0  0  0  0  0
    3.4955    1.5345    2.4651 H   0  0  0  0  0  0  0  0  0  0  0  0
    1.8597    2.1964    2.2279 H   0  0  0  0  0  0  0  0  0  0  0  0
    4.0600    1.7976   -2.7153 H   0  0  0  0  0  0  0  0  0  0  0  0
    3.8945   -2.6256    1.7470 H   0  0  0  0  0  0  0  0  0  0  0  0
    1.5533   -1.3293   -1.5352 H   0  0  0  0  0  0  0  0  0  0  0  0
    3.9855    5.4738   -0.4392 H   0  0  0  0  0  0  0  0  0  0  0  0
   -1.3200    0.4899   -0.1670 H   0  0  0  0  0  0  0  0  0  0  0  0
    3.8961    5.0531    3.5343 H   0  0  0  0  0  0  0  0  0  0  0  0
    5.0444    5.1658    2.1833 H   0  0  0  0  0  0  0  0  0  0  0  0
    4.6570    3.5746    2.9094 H   0  0  0  0  0  0  0  0  0  0  0  0
    5.0569    6.1575   -3.6752 H   0  0  0  0  0  0  0  0  0  0  0  0
    5.4901    6.0239   -1.9746 H   0  0  0  0  0  0  0  0  0  0  0  0
    3.7671    6.3053   -2.4869 H   0  0  0  0  0  0  0  0  0  0  0  0
   -2.6473    0.3059    2.6234 H   0  0  0  0  0  0  0  0  0  0  0  0
    1.1206   -2.1210   -3.5359 H   0  0  0  0  0  0  0  0  0  0  0  0
   -0.3481   -3.0382   -3.8420 H   0  0  0  0  0  0  0  0  0  0  0  0
   -0.3325   -1.9666   -2.4482 H   0  0  0  0  0  0  0  0  0  0  0  0
    4.5251   -5.7704    3.0340 H   0  0  0  0  0  0  0  0  0  0  0  0
    3.7069   -4.2281    3.2453 H   0  0  0  0  0  0  0  0  0  0  0  0
    5.1566   -4.3845    2.1545 H   0  0  0  0  0  0  0  0  0  0  0  0
    0.3970   -7.3527   -0.3781 H   0  0  0  0  0  0  0  0  0  0  0  0
   -0.3410   -5.7361   -0.3662 H   0  0  0  0  0  0  0  0  0  0  0  0
    0.6463   -6.2908    1.0249 H   0  0  0  0  0  0  0  0  0  0  0  0
   -4.9650    1.1192    2.6453 H   0  0  0  0  0  0  0  0  0  0  0  0
   -3.1449   -0.1701   -1.0147 H   0  0  0  0  0  0  0  0  0  0  0  0
   -4.4268   -0.6514   -4.1524 H   0  0  0  0  0  0  0  0  0  0  0  0
   -3.7698   -1.3902   -2.6993 H   0  0  0  0  0  0  0  0  0  0  0  0
   -3.4203    0.3493   -3.1156 H   0  0  0  0  0  0  0  0  0  0  0  0
   -8.5562    2.8995    2.3094 H   0  0  0  0  0  0  0  0  0  0  0  0
   -7.8357    3.1362    0.7019 H   0  0  0  0  0  0  0  0  0  0  0  0
   -6.8278    3.2930    2.1781 H   0  0  0  0  0  0  0  0  0  0  0  0
   -7.9099   -1.2600   -1.5323 H   0  0  0  0  0  0  0  0  0  0  0  0
   -8.6641   -0.7316    0.0070 H   0  0  0  0  0  0  0  0  0  0  0  0
   -9.3454   -0.2127   -1.5500 H   0  0  0  0  0  0  0  0  0  0  0  0
  1 13  1  0  0  0  0
  1 17  1  0  0  0  0
  2 12  1  0  0  0  0
  2 27  1  0  0  0  0
  3 18  1  0  0  0  0
  3 29  1  0  0  0  0
  4 23  1  0  0  0  0
  4 30  1  0  0  0  0
  5 24  1  0  0  0  0
  5 32  1  0  0  0  0
  6 25  1  0  0  0  0
  6 33  1  0  0  0  0
  7 26  1  0  0  0  0
  7 34  1  0  0  0  0
  8 27  2  0  0  0  0
  9 38  1  0  0  0  0
  9 41  1  0  0  0  0
 10 39  1  0  0  0  0
 10 42  1  0  0  0  0
 11 40  1  0  0  0  0
 11 43  1  0  0  0  0
 12 13  1  0  0  0  0
 12 14  1  0  0  0  0
 12 44  1  0  0  0  0
 13 16  1  0  0  0  0
 13 45  1  0  0  0  0
 14 15  1  0  0  0  0
 14 46  1  0  0  0  0
 14 47  1  0  0  0  0
 15 17  2  0  0  0  0
 15 18  1  0  0  0  0
 16 20  2  0  0  0  0
 16 21  1  0  0  0  0
 17 19  1  0  0  0  0
 18 22  2  0  0  0  0
 19 23  2  0  0  0  0
 19 48  1  0  0  0  0
 20 25  1  0  0  0  0
 20 49  1  0  0  0  0
 21 24  2  0  0  0  0
 21 50  1  0  0  0  0
 22 23  1  0  0  0  0
 22 51  1  0  0  0  0
 24 26  1  0  0  0  0
 25 26  2  0  0  0  0
 27 28  1  0  0  0  0
 28 31  2  0  0  0  0
 28 52  1  0  0  0  0
 29 53  1  0  0  0  0
 29 54  1  0  0  0  0
 29 55  1  0  0  0  0
 30 56  1  0  0  0  0
 30 57  1  0  0  0  0
 30 58  1  0  0  0  0
 31 35  1  0  0  0  0
 31 59  1  0  0  0  0
 32 60  1  0  0  0  0
 32 61  1  0  0  0  0
 32 62  1  0  0  0  0
 33 63  1  0  0  0  0
 33 64  1  0  0  0  0
 33 65  1  0  0  0  0
 34 66  1  0  0  0  0
 34 67  1  0  0  0  0
 34 68  1  0  0  0  0
 35 36  2  0  0  0  0
 35 37  1  0  0  0  0
 36 39  1  0  0  0  0
 36 69  1  0  0  0  0
 37 38  2  0  0  0  0
 37 70  1  0  0  0  0
 38 40  1  0  0  0  0
 39 40  2  0  0  0  0
 41 71  1  0  0  0  0
 41 72  1  0  0  0  0
 41 73  1  0  0  0  0
 42 74  1  0  0  0  0
 42 75  1  0  0  0  0
 42 76  1  0  0  0  0
 43 77  1  0  0  0  0
 43 78  1  0  0  0  0
 43 79  1  0  0  0  0
M  END
> <PUBCHEM_COMPOUND_CID>
122179376

> <PUBCHEM_CONFORMER_RMSD>
1.2

> <PUBCHEM_CONFORMER_DIVERSEORDER>
1
15
20
12
19
5
4
6
18
22
16
8
21
13
14
10
3
17
7
11
9
2

> <PUBCHEM_MMFF94_PARTIAL_CHARGES>
51
1 -0.36
10 -0.36
11 -0.36
12 0.28
13 0.42
14 0.14
15 -0.14
16 -0.14
17 0.08
18 0.08
19 -0.15
2 -0.43
20 -0.15
21 -0.15
22 -0.15
23 0.08
24 0.08
25 0.08
26 0.08
27 0.71
28 -0.14
29 0.28
3 -0.36
30 0.28
31 -0.18
32 0.28
33 0.28
34 0.28
35 0.03
36 -0.15
37 -0.15
38 0.08
39 0.08
4 -0.36
40 0.08
41 0.28
42 0.28
43 0.28
48 0.15
49 0.15
5 -0.36
50 0.15
51 0.15
52 0.15
59 0.15
6 -0.36
69 0.15
7 -0.36
70 0.15
8 -0.57
9 -0.36

> <PUBCHEM_EFFECTIVE_ROTOR_COUNT>
13.8

> <PUBCHEM_PHARMACOPHORE_FEATURES>
14
1 1 acceptor
1 10 acceptor
1 11 acceptor
1 3 acceptor
1 4 acceptor
1 5 acceptor
1 6 acceptor
1 7 acceptor
1 8 acceptor
1 9 acceptor
6 1 12 13 14 15 17 rings
6 15 17 18 19 22 23 rings
6 16 20 21 24 25 26 rings
6 35 36 37 38 39 40 rings

> <PUBCHEM_HEAVY_ATOM_COUNT>
43

> <PUBCHEM_ATOM_DEF_STEREO_COUNT>
2

> <PUBCHEM_ATOM_UDEF_STEREO_COUNT>
0

> <PUBCHEM_BOND_DEF_STEREO_COUNT>
1

> <PUBCHEM_BOND_UDEF_STEREO_COUNT>
0

> <PUBCHEM_ISOTOPIC_ATOM_COUNT>
0

> <PUBCHEM_COMPONENT_COUNT>
1

> <PUBCHEM_CACTVS_TAUTO_COUNT>
1

> <PUBCHEM_CONFORMER_ID>
07484F3000000001

> <PUBCHEM_MMFF94_ENERGY>
204.5539

> <PUBCHEM_FEATURE_SELFOVERLAP>
71.109

> <PUBCHEM_SHAPE_FINGERPRINT>
10462674 125 17838883846820067818
10721379 63 18271535208207709152
11062273 29 18412271618879576220
11093857 51 18115606961951239076
11331351 85 17692813687966596192
11505856 67 17107641969204273620
14675020 138 18129085879116766520
15198563 99 16897668272460384564
15264996 154 17703795765330853087
15484559 13 18201728400550545364
17899979 129 18263381294332514164
18365409 1 18058434565136185554
19309040 13 18339093674095907389
21304303 282 17693077975211921746
21772528 278 17908731731359651125
23522609 53 18057628524650701105
3534868 343 18270127807417585185
376196 1 17896326985635686424
44280116 191 18271816743304081149
45270241 37 18409449190196097957
474144 1 17917425389723021223
5223283 242 17831578670417204493
6695519 79 17982475950633434267

> <PUBCHEM_SHAPE_MULTIPOLES>
820.36
17.11
9.36
3.09
48.27
7.73
-1.08
-15.93
-0.92
-21.94
-1.24
-0.79
-1.4
-5.2

> <PUBCHEM_SHAPE_SELFOVERLAP>
1758.633

> <PUBCHEM_SHAPE_VOLUME>
458.2

> <PUBCHEM_COORDINATE_TYPE>
2
5
10

$$$$