38
 OpenBabel03292022263D

 89 93  0  0  1  0  0  0  0  0999 V2000
    1.3380    0.2016   -0.7425 C   0  0  0  0  0  0  0  0  0  0  0  0
    2.5564    0.0681   -0.0204 O   0  0  0  0  0  0  0  0  0  0  0  0
    3.1963   -1.1374   -0.1037 C   0  0  0  0  0  0  0  0  0  0  0  0
    4.3556   -1.2507    0.6685 C   0  0  0  0  0  0  0  0  0  0  0  0
    5.1117   -2.4357    0.7037 C   0  0  0  0  0  0  0  0  0  0  0  0
    6.2525   -2.3258    1.4501 O   0  0  0  0  0  0  0  0  0  0  0  0
    6.6052   -3.4282    2.2760 C   0  0  0  0  0  0  0  0  0  0  0  0
    4.7076   -3.5463   -0.0622 C   0  0  0  0  0  0  0  0  0  0  0  0
    3.5211   -3.4219   -0.8085 C   0  0  0  0  0  0  0  0  0  0  0  0
    2.7914   -2.2276   -0.8576 C   0  0  0  0  0  0  0  0  0  0  0  0
    2.9364   -4.4758   -1.4859 O   0  0  0  0  0  0  0  0  0  0  0  0
    3.3605   -5.7952   -1.0424 C   0  0  2  0  0  0  0  0  0  0  0  0
    2.7246   -6.1666    0.3095 C   0  0  0  0  0  0  0  0  0  0  0  0
    1.7803   -5.3218    0.9154 C   0  0  0  0  0  0  0  0  0  0  0  0
    1.2003   -5.5838    2.1632 C   0  0  0  0  0  0  0  0  0  0  0  0
    0.3699   -4.6673    2.7580 O   0  0  0  0  0  0  0  0  0  0  0  0
   -0.3112   -3.7452    1.9149 C   0  0  0  0  0  0  0  0  0  0  0  0
    1.5213   -6.7719    2.8427 C   0  0  0  0  0  0  0  0  0  0  0  0
    1.0152   -7.1449    4.0612 O   0  0  0  0  0  0  0  0  0  0  0  0
    0.0237   -6.3559    4.7040 C   0  0  0  0  0  0  0  0  0  0  0  0
    2.4305   -7.6700    2.2280 C   0  0  0  0  0  0  0  0  0  0  0  0
    2.8658   -8.8892    2.6910 O   0  0  0  0  0  0  0  0  0  0  0  0
    2.3965   -9.3663    3.9444 C   0  0  0  0  0  0  0  0  0  0  0  0
    3.0166   -7.3547    0.9786 C   0  0  0  0  0  0  0  0  0  0  0  0
    4.9001   -5.8030   -1.1690 C   0  0  2  0  0  0  0  0  0  0  0  0
    5.5596   -7.0791   -1.0549 O   0  0  0  0  0  0  0  0  0  0  0  0
    5.4821   -7.8621   -2.1656 C   0  0  0  0  0  0  0  0  0  0  0  0
    4.7108   -7.6842   -3.0982 O   0  0  0  0  0  0  0  0  0  0  0  0
    6.5321   -8.9189   -2.1643 C   0  0  0  0  0  0  0  0  0  0  0  0
    7.5900   -8.9201   -1.2406 C   0  0  0  0  0  0  0  0  0  0  0  0
    8.6112   -9.8703   -1.3416 C   0  0  0  0  0  0  0  0  0  0  0  0
    8.5760  -10.8190   -2.3585 C   0  0  0  0  0  0  0  0  0  0  0  0
    9.5488  -11.7397   -2.4323 F   0  0  0  0  0  0  0  0  0  0  0  0
    7.5067  -10.8681   -3.2561 C   0  0  0  0  0  0  0  0  0  0  0  0
    7.4778  -11.9195   -4.2060 N   0  0  0  0  0  0  0  0  0  0  0  0
    6.3077  -12.6209   -4.4563 C   0  0  0  0  0  0  0  0  0  0  0  0
    5.2270  -12.3939   -3.9296 O   0  0  0  0  0  0  0  0  0  0  0  0
    6.4264  -13.8124   -5.3377 C   0  0  0  0  0  0  0  0  0  0  0  0
    5.6240  -14.9148   -5.0364 C   0  0  0  0  0  0  0  0  0  0  0  0
    5.6255  -16.0370   -5.8647 C   0  0  0  0  0  0  0  0  0  0  0  0
    4.8419  -17.1425   -5.6283 O   0  0  0  0  0  0  0  0  0  0  0  0
    3.7006  -16.9378   -4.7984 C   0  0  0  0  0  0  0  0  0  0  0  0
    6.4676  -16.0712   -6.9992 C   0  0  0  0  0  0  0  0  0  0  0  0
    6.4473  -17.2540   -7.7043 O   0  0  0  0  0  0  0  0  0  0  0  0
    6.5615  -17.1698   -9.1195 C   0  0  0  0  0  0  0  0  0  0  0  0
    7.2969  -14.9631   -7.2910 C   0  0  0  0  0  0  0  0  0  0  0  0
    8.1266  -15.0586   -8.3776 O   0  0  0  0  0  0  0  0  0  0  0  0
    8.9670  -13.9555   -8.6882 C   0  0  0  0  0  0  0  0  0  0  0  0
    7.2569  -13.8325   -6.4586 C   0  0  0  0  0  0  0  0  0  0  0  0
    6.4971   -9.9017   -3.1695 C   0  0  0  0  0  0  0  0  0  0  0  0
    5.4749   -4.8391   -0.1236 C   0  0  0  0  0  0  0  0  0  0  0  0
    0.9621    1.2177   -0.5824 H   0  0  0  0  0  0  0  0  0  0  0  0
    0.5787   -0.4947   -0.3679 H   0  0  0  0  0  0  0  0  0  0  0  0
    1.4949    0.0727   -1.8179 H   0  0  0  0  0  0  0  0  0  0  0  0
    4.6779   -0.3985    1.2644 H   0  0  0  0  0  0  0  0  0  0  0  0
    7.1890   -3.0413    3.1189 H   0  0  0  0  0  0  0  0  0  0  0  0
    7.2552   -4.1111    1.7301 H   0  0  0  0  0  0  0  0  0  0  0  0
    5.7318   -3.9466    2.6873 H   0  0  0  0  0  0  0  0  0  0  0  0
    1.8912   -2.2038   -1.4621 H   0  0  0  0  0  0  0  0  0  0  0  0
    2.9321   -6.4986   -1.7650 H   0  0  0  0  0  0  0  0  0  0  0  0
    1.5051   -4.4082    0.4050 H   0  0  0  0  0  0  0  0  0  0  0  0
   -1.1145   -3.2898    2.5016 H   0  0  0  0  0  0  0  0  0  0  0  0
   -0.7709   -4.2491    1.0577 H   0  0  0  0  0  0  0  0  0  0  0  0
    0.3591   -2.9420    1.5923 H   0  0  0  0  0  0  0  0  0  0  0  0
   -0.2951   -6.8930    5.6028 H   0  0  0  0  0  0  0  0  0  0  0  0
   -0.8655   -6.2328    4.0778 H   0  0  0  0  0  0  0  0  0  0  0  0
    0.4379   -5.3989    5.0357 H   0  0  0  0  0  0  0  0  0  0  0  0
    2.8651  -10.3387    4.1258 H   0  0  0  0  0  0  0  0  0  0  0  0
    1.3145   -9.5316    3.9304 H   0  0  0  0  0  0  0  0  0  0  0  0
    2.7061   -8.7067    4.7611 H   0  0  0  0  0  0  0  0  0  0  0  0
    3.7053   -8.0755    0.5401 H   0  0  0  0  0  0  0  0  0  0  0  0
    5.1647   -5.3819   -2.1512 H   0  0  0  0  0  0  0  0  0  0  0  0
    7.6395   -8.1784   -0.4472 H   0  0  0  0  0  0  0  0  0  0  0  0
    9.4279   -9.8838   -0.6266 H   0  0  0  0  0  0  0  0  0  0  0  0
    8.3455  -12.4281   -4.3292 H   0  0  0  0  0  0  0  0  0  0  0  0
    5.0082  -14.8734   -4.1439 H   0  0  0  0  0  0  0  0  0  0  0  0
    3.0877  -17.8429   -4.8337 H   0  0  0  0  0  0  0  0  0  0  0  0
    3.0875  -16.1052   -5.1625 H   0  0  0  0  0  0  0  0  0  0  0  0
    3.9951  -16.7820   -3.7551 H   0  0  0  0  0  0  0  0  0  0  0  0
    6.1791  -18.1062   -9.5389 H   0  0  0  0  0  0  0  0  0  0  0  0
    7.6091  -17.0989   -9.4247 H   0  0  0  0  0  0  0  0  0  0  0  0
    5.9641  -16.3517   -9.5358 H   0  0  0  0  0  0  0  0  0  0  0  0
    9.5617  -14.2245   -9.5660 H   0  0  0  0  0  0  0  0  0  0  0  0
    9.6614  -13.7457   -7.8683 H   0  0  0  0  0  0  0  0  0  0  0  0
    8.3748  -13.0711   -8.9450 H   0  0  0  0  0  0  0  0  0  0  0  0
    7.8473  -12.9505   -6.6802 H   0  0  0  0  0  0  0  0  0  0  0  0
    5.6828   -9.8988   -3.8934 H   0  0  0  0  0  0  0  0  0  0  0  0
    6.5241   -4.6431   -0.3743 H   0  0  0  0  0  0  0  0  0  0  0  0
    5.4562   -5.3359    0.8524 H   0  0  0  0  0  0  0  0  0  0  0  0
  1  2  1  0  0  0  0
  1 52  1  0  0  0  0
  1 53  1  0  0  0  0
  1 54  1  0  0  0  0
  2  3  1  0  0  0  0
  3  4  1  0  0  0  0
  3 10  2  0  0  0  0
  4  5  2  0  0  0  0
  4 55  1  0  0  0  0
  5  6  1  0  0  0  0
  5  8  1  0  0  0  0
  6  7  1  0  0  0  0
  7 56  1  0  0  0  0
  7 57  1  0  0  0  0
  7 58  1  0  0  0  0
  8  9  2  0  0  0  0
  8 51  1  0  0  0  0
  9 10  1  0  0  0  0
  9 11  1  0  0  0  0
 10 59  1  0  0  0  0
 11 12  1  0  0  0  0
 12 13  1  0  0  0  0
 12 25  1  0  0  0  0
 12 60  1  6  0  0  0
 13 14  1  0  0  0  0
 13 24  2  0  0  0  0
 14 15  2  0  0  0  0
 14 61  1  0  0  0  0
 15 16  1  0  0  0  0
 15 18  1  0  0  0  0
 16 17  1  0  0  0  0
 17 62  1  0  0  0  0
 17 63  1  0  0  0  0
 17 64  1  0  0  0  0
 18 19  1  0  0  0  0
 18 21  2  0  0  0  0
 19 20  1  0  0  0  0
 20 65  1  0  0  0  0
 20 66  1  0  0  0  0
 20 67  1  0  0  0  0
 21 22  1  0  0  0  0
 21 24  1  0  0  0  0
 22 23  1  0  0  0  0
 23 68  1  0  0  0  0
 23 69  1  0  0  0  0
 23 70  1  0  0  0  0
 24 71  1  0  0  0  0
 25 51  1  0  0  0  0
 25 26  1  0  0  0  0
 25 72  1  6  0  0  0
 26 27  1  0  0  0  0
 27 28  2  0  0  0  0
 27 29  1  0  0  0  0
 29 30  1  0  0  0  0
 29 50  2  0  0  0  0
 30 31  2  0  0  0  0
 30 73  1  0  0  0  0
 31 32  1  0  0  0  0
 31 74  1  0  0  0  0
 32 33  1  0  0  0  0
 32 34  2  0  0  0  0
 34 35  1  0  0  0  0
 34 50  1  0  0  0  0
 35 36  1  0  0  0  0
 35 75  1  0  0  0  0
 36 37  2  0  0  0  0
 36 38  1  0  0  0  0
 38 39  1  0  0  0  0
 38 49  2  0  0  0  0
 39 40  2  0  0  0  0
 39 76  1  0  0  0  0
 40 41  1  0  0  0  0
 40 43  1  0  0  0  0
 41 42  1  0  0  0  0
 42 77  1  0  0  0  0
 42 78  1  0  0  0  0
 42 79  1  0  0  0  0
 43 44  1  0  0  0  0
 43 46  2  0  0  0  0
 44 45  1  0  0  0  0
 45 80  1  0  0  0  0
 45 81  1  0  0  0  0
 45 82  1  0  0  0  0
 46 47  1  0  0  0  0
 46 49  1  0  0  0  0
 47 48  1  0  0  0  0
 48 83  1  0  0  0  0
 48 84  1  0  0  0  0
 48 85  1  0  0  0  0
 49 86  1  0  0  0  0
 50 87  1  0  0  0  0
 51 88  1  0  0  0  0
 51 89  1  0  0  0  0
M  END
>  <Energy>
207.718

$$$$