122179390
  -OEChem-03242010103D

 85 89  0     1  0  0  0  0  0999 V2000
   -3.5380    4.7810   -1.5665 F   0  0  0  0  0  0  0  0  0  0  0  0
    3.7769   -1.4143    0.5199 O   0  0  0  0  0  0  0  0  0  0  0  0
    1.5637    1.3727   -0.4899 O   0  0  0  0  0  0  0  0  0  0  0  0
    6.2330    2.6916    1.2723 O   0  0  0  0  0  0  0  0  0  0  0  0
    8.2111   -1.5416    2.1707 O   0  0  0  0  0  0  0  0  0  0  0  0
   -1.6534   -3.1600    0.2976 O   0  0  0  0  0  0  0  0  0  0  0  0
    1.1627   -3.2092   -3.5760 O   0  0  0  0  0  0  0  0  0  0  0  0
   -1.1593   -4.0057   -2.2930 O   0  0  0  0  0  0  0  0  0  0  0  0
    2.2738    2.3416   -2.4537 O   0  0  0  0  0  0  0  0  0  0  0  0
   -2.4427    0.2558    0.4276 O   0  0  0  0  0  0  0  0  0  0  0  0
   -6.6030   -2.3668    1.6018 O   0  0  0  0  0  0  0  0  0  0  0  0
   -8.4191   -0.3933    2.3320 O   0  0  0  0  0  0  0  0  0  0  0  0
   -3.3268    2.2715   -0.3992 N   0  0  0  0  0  0  0  0  0  0  0  0
    2.7906    0.6584   -0.3825 C   0  0  2  0  0  0  0  0  0  0  0  0
    2.5636   -0.6595    0.3714 C   0  0  1  0  0  0  0  0  0  0  0  0
    3.7907    1.5153    0.3893 C   0  0  0  0  0  0  0  0  0  0  0  0
    4.9545    0.6959    0.8581 C   0  0  0  0  0  0  0  0  0  0  0  0
    1.5676   -1.5551   -0.3417 C   0  0  0  0  0  0  0  0  0  0  0  0
    4.8789   -0.7003    0.9079 C   0  0  0  0  0  0  0  0  0  0  0  0
    6.1297    1.3314    1.2812 C   0  0  0  0  0  0  0  0  0  0  0  0
    5.9768   -1.4504    1.3381 C   0  0  0  0  0  0  0  0  0  0  0  0
    1.8204   -1.9795   -1.6460 C   0  0  0  0  0  0  0  0  0  0  0  0
    0.3991   -1.9540    0.3074 C   0  0  0  0  0  0  0  0  0  0  0  0
    7.2207    0.5815    1.7216 C   0  0  0  0  0  0  0  0  0  0  0  0
    7.1455   -0.8091    1.7461 C   0  0  0  0  0  0  0  0  0  0  0  0
   -0.5165   -2.7774   -0.3479 C   0  0  0  0  0  0  0  0  0  0  0  0
    0.9049   -2.8031   -2.3014 C   0  0  0  0  0  0  0  0  0  0  0  0
    1.4383    2.1804   -1.5776 C   0  0  0  0  0  0  0  0  0  0  0  0
   -0.2636   -3.2018   -1.6523 C   0  0  0  0  0  0  0  0  0  0  0  0
    0.1211    2.8655   -1.5725 C   0  0  0  0  0  0  0  0  0  0  0  0
    5.8316    3.3776    2.4557 C   0  0  0  0  0  0  0  0  0  0  0  0
   -0.9846    2.2476   -0.9884 C   0  0  0  0  0  0  0  0  0  0  0  0
   -0.0107    4.1271   -2.1528 C   0  0  0  0  0  0  0  0  0  0  0  0
    9.3749   -0.8209    2.5738 C   0  0  0  0  0  0  0  0  0  0  0  0
   -2.2219    2.8914   -0.9840 C   0  0  0  0  0  0  0  0  0  0  0  0
   -1.5935   -4.3674    1.0547 C   0  0  0  0  0  0  0  0  0  0  0  0
    2.3798   -2.7565   -4.1664 C   0  0  0  0  0  0  0  0  0  0  0  0
   -1.2480    4.7710   -2.1485 C   0  0  0  0  0  0  0  0  0  0  0  0
   -2.1839   -3.3607   -3.0460 C   0  0  0  0  0  0  0  0  0  0  0  0
   -2.3536    4.1531   -1.5642 C   0  0  0  0  0  0  0  0  0  0  0  0
   -3.3760    1.0317    0.2517 C   0  0  0  0  0  0  0  0  0  0  0  0
   -4.7046    0.6522    0.7998 C   0  0  0  0  0  0  0  0  0  0  0  0
   -5.0401   -0.6936    0.9479 C   0  0  0  0  0  0  0  0  0  0  0  0
   -5.6160    1.6426    1.1662 C   0  0  0  0  0  0  0  0  0  0  0  0
   -6.2868   -1.0491    1.4625 C   0  0  0  0  0  0  0  0  0  0  0  0
   -6.8628    1.2872    1.6807 C   0  0  0  0  0  0  0  0  0  0  0  0
   -7.1981   -0.0587    1.8289 C   0  0  0  0  0  0  0  0  0  0  0  0
   -5.6152   -3.3156    1.2038 C   0  0  0  0  0  0  0  0  0  0  0  0
   -9.2917    0.6795    2.6819 C   0  0  0  0  0  0  0  0  0  0  0  0
    3.2154    0.4389   -1.3718 H   0  0  0  0  0  0  0  0  0  0  0  0
    2.1774   -0.4434    1.3778 H   0  0  0  0  0  0  0  0  0  0  0  0
    3.2964    1.9698    1.2571 H   0  0  0  0  0  0  0  0  0  0  0  0
    4.1250    2.3390   -0.2530 H   0  0  0  0  0  0  0  0  0  0  0  0
    5.9199   -2.5361    1.3607 H   0  0  0  0  0  0  0  0  0  0  0  0
    2.7493   -1.6542   -2.1004 H   0  0  0  0  0  0  0  0  0  0  0  0
    0.1931   -1.6260    1.3233 H   0  0  0  0  0  0  0  0  0  0  0  0
    8.0999    1.1377    2.0302 H   0  0  0  0  0  0  0  0  0  0  0  0
    5.8886    4.4526    2.2638 H   0  0  0  0  0  0  0  0  0  0  0  0
    6.5074    3.1346    3.2817 H   0  0  0  0  0  0  0  0  0  0  0  0
    4.8028    3.1265    2.7303 H   0  0  0  0  0  0  0  0  0  0  0  0
   -0.8382    1.2604   -0.5761 H   0  0  0  0  0  0  0  0  0  0  0  0
    0.8417    4.6231   -2.6095 H   0  0  0  0  0  0  0  0  0  0  0  0
   10.1229   -1.5601    2.8787 H   0  0  0  0  0  0  0  0  0  0  0  0
    9.1754   -0.1899    3.4465 H   0  0  0  0  0  0  0  0  0  0  0  0
    9.8063   -0.2548    1.7413 H   0  0  0  0  0  0  0  0  0  0  0  0
   -0.8662   -4.2731    1.8672 H   0  0  0  0  0  0  0  0  0  0  0  0
   -2.5798   -4.5516    1.4881 H   0  0  0  0  0  0  0  0  0  0  0  0
   -1.3312   -5.2135    0.4118 H   0  0  0  0  0  0  0  0  0  0  0  0
    2.4195   -3.1714   -5.1790 H   0  0  0  0  0  0  0  0  0  0  0  0
    3.2554   -3.1408   -3.6321 H   0  0  0  0  0  0  0  0  0  0  0  0
    2.3978   -1.6662   -4.2699 H   0  0  0  0  0  0  0  0  0  0  0  0
   -1.3509    5.7535   -2.5996 H   0  0  0  0  0  0  0  0  0  0  0  0
   -1.7498   -2.7521   -3.8456 H   0  0  0  0  0  0  0  0  0  0  0  0
   -2.8054   -2.7372   -2.3954 H   0  0  0  0  0  0  0  0  0  0  0  0
   -2.8146   -4.1317   -3.4968 H   0  0  0  0  0  0  0  0  0  0  0  0
   -4.1898    2.7991   -0.4972 H   0  0  0  0  0  0  0  0  0  0  0  0
   -4.2995   -1.4244    0.6414 H   0  0  0  0  0  0  0  0  0  0  0  0
   -5.3836    2.7014    1.1036 H   0  0  0  0  0  0  0  0  0  0  0  0
   -7.5167    2.1089    1.9518 H   0  0  0  0  0  0  0  0  0  0  0  0
   -6.0342   -4.3113    1.3829 H   0  0  0  0  0  0  0  0  0  0  0  0
   -4.7124   -3.2366    1.8186 H   0  0  0  0  0  0  0  0  0  0  0  0
   -5.3991   -3.2507    0.1319 H   0  0  0  0  0  0  0  0  0  0  0  0
  -10.2159    0.2319    3.0623 H   0  0  0  0  0  0  0  0  0  0  0  0
   -9.5657    1.2788    1.8070 H   0  0  0  0  0  0  0  0  0  0  0  0
   -8.8771    1.2890    3.4921 H   0  0  0  0  0  0  0  0  0  0  0  0
  1 40  1  0  0  0  0
  2 15  1  0  0  0  0
  2 19  1  0  0  0  0
  3 14  1  0  0  0  0
  3 28  1  0  0  0  0
  4 20  1  0  0  0  0
  4 31  1  0  0  0  0
  5 25  1  0  0  0  0
  5 34  1  0  0  0  0
  6 26  1  0  0  0  0
  6 36  1  0  0  0  0
  7 27  1  0  0  0  0
  7 37  1  0  0  0  0
  8 29  1  0  0  0  0
  8 39  1  0  0  0  0
  9 28  2  0  0  0  0
 10 41  2  0  0  0  0
 11 45  1  0  0  0  0
 11 48  1  0  0  0  0
 12 47  1  0  0  0  0
 12 49  1  0  0  0  0
 13 35  1  0  0  0  0
 13 41  1  0  0  0  0
 13 76  1  0  0  0  0
 14 15  1  0  0  0  0
 14 16  1  0  0  0  0
 14 50  1  0  0  0  0
 15 18  1  0  0  0  0
 15 51  1  0  0  0  0
 16 17  1  0  0  0  0
 16 52  1  0  0  0  0
 16 53  1  0  0  0  0
 17 19  2  0  0  0  0
 17 20  1  0  0  0  0
 18 22  2  0  0  0  0
 18 23  1  0  0  0  0
 19 21  1  0  0  0  0
 20 24  2  0  0  0  0
 21 25  2  0  0  0  0
 21 54  1  0  0  0  0
 22 27  1  0  0  0  0
 22 55  1  0  0  0  0
 23 26  2  0  0  0  0
 23 56  1  0  0  0  0
 24 25  1  0  0  0  0
 24 57  1  0  0  0  0
 26 29  1  0  0  0  0
 27 29  2  0  0  0  0
 28 30  1  0  0  0  0
 30 32  2  0  0  0  0
 30 33  1  0  0  0  0
 31 58  1  0  0  0  0
 31 59  1  0  0  0  0
 31 60  1  0  0  0  0
 32 35  1  0  0  0  0
 32 61  1  0  0  0  0
 33 38  2  0  0  0  0
 33 62  1  0  0  0  0
 34 63  1  0  0  0  0
 34 64  1  0  0  0  0
 34 65  1  0  0  0  0
 35 40  2  0  0  0  0
 36 66  1  0  0  0  0
 36 67  1  0  0  0  0
 36 68  1  0  0  0  0
 37 69  1  0  0  0  0
 37 70  1  0  0  0  0
 37 71  1  0  0  0  0
 38 40  1  0  0  0  0
 38 72  1  0  0  0  0
 39 73  1  0  0  0  0
 39 74  1  0  0  0  0
 39 75  1  0  0  0  0
 41 42  1  0  0  0  0
 42 43  2  0  0  0  0
 42 44  1  0  0  0  0
 43 45  1  0  0  0  0
 43 77  1  0  0  0  0
 44 46  2  0  0  0  0
 44 78  1  0  0  0  0
 45 47  2  0  0  0  0
 46 47  1  0  0  0  0
 46 79  1  0  0  0  0
 48 80  1  0  0  0  0
 48 81  1  0  0  0  0
 48 82  1  0  0  0  0
 49 83  1  0  0  0  0
 49 84  1  0  0  0  0
 49 85  1  0  0  0  0
M  END
> <PUBCHEM_COMPOUND_CID>
122179390

> <PUBCHEM_CONFORMER_RMSD>
1.4

> <PUBCHEM_CONFORMER_DIVERSEORDER>
1
9
8
12
22
23
21
13
17
20
10
2
4
16
19
15
6
18
7
5
11
14
3

> <PUBCHEM_MMFF94_PARTIAL_CHARGES>
60
1 -0.19
10 -0.57
11 -0.36
12 -0.36
13 -0.55
14 0.28
15 0.42
16 0.14
17 -0.14
18 -0.14
19 0.08
2 -0.36
20 0.08
21 -0.15
22 -0.15
23 -0.15
24 -0.15
25 0.08
26 0.08
27 0.08
28 0.63
29 0.08
3 -0.43
30 0.09
31 0.28
32 -0.15
33 -0.15
34 0.28
35 0.12
36 0.28
37 0.28
38 -0.15
39 0.28
4 -0.36
40 0.19
41 0.54
42 0.09
43 -0.15
44 -0.15
45 0.08
46 -0.15
47 0.08
48 0.28
49 0.28
5 -0.36
54 0.15
55 0.15
56 0.15
57 0.15
6 -0.36
61 0.15
62 0.15
7 -0.36
72 0.15
76 0.37
77 0.15
78 0.15
79 0.15
8 -0.36
9 -0.57

> <PUBCHEM_EFFECTIVE_ROTOR_COUNT>
14.8

> <PUBCHEM_PHARMACOPHORE_FEATURES>
16
1 10 acceptor
1 11 acceptor
1 12 acceptor
1 13 donor
1 2 acceptor
1 4 acceptor
1 5 acceptor
1 6 acceptor
1 7 acceptor
1 8 acceptor
1 9 acceptor
6 17 19 20 21 24 25 rings
6 18 22 23 26 27 29 rings
6 2 14 15 16 17 19 rings
6 30 32 33 35 38 40 rings
6 42 43 44 45 46 47 rings

> <PUBCHEM_HEAVY_ATOM_COUNT>
49

> <PUBCHEM_ATOM_DEF_STEREO_COUNT>
2

> <PUBCHEM_ATOM_UDEF_STEREO_COUNT>
0

> <PUBCHEM_BOND_DEF_STEREO_COUNT>
0

> <PUBCHEM_BOND_UDEF_STEREO_COUNT>
0

> <PUBCHEM_ISOTOPIC_ATOM_COUNT>
0

> <PUBCHEM_COMPONENT_COUNT>
1

> <PUBCHEM_CACTVS_TAUTO_COUNT>
4

> <PUBCHEM_CONFORMER_ID>
07484F3E00000001

> <PUBCHEM_MMFF94_ENERGY>
217.9599

> <PUBCHEM_FEATURE_SELFOVERLAP>
81.255

> <PUBCHEM_SHAPE_FINGERPRINT>
10190108 129 18113334190186345754
10439779 11 18121793982599730097
11093857 5 18047764688828825909
11828532 37 16806753826684361001
12202916 173 18114181922177784091
12218070 45 18201150074588058223
13165053 182 11815029323366593706
14017581 57 17203328836963970854
14068700 675 14562532855769152887
14294032 229 17632017584368854119
18393751 57 18413672405130615187
19301679 30 18115890554948141457
19319366 153 17245854892678351476
1979834 28 18270698497407806749
21792965 96 18342736309453895900
24771293 8 18341620322041487115
25019877 29 17989207066282074407
255183 313 18271800241743239566
4403749 210 18117538666684763820
50009960 94 17533501385875629283
50677037 204 18122604305331328128
50742298 180 17896057549821572001

> <PUBCHEM_SHAPE_MULTIPOLES>
931.58
21.7
6.33
3.49
0.05
1.78
2.35
0.55
-31.35
3.31
5.45
-0.74
-1.36
2.25

> <PUBCHEM_SHAPE_SELFOVERLAP>
2024.446

> <PUBCHEM_SHAPE_VOLUME>
513.4

> <PUBCHEM_COORDINATE_TYPE>
2
5
10

$$$$