137633964
  -OEChem-03242010103D

 57 60  0     0  0  0  0  0  0999 V2000
   -4.6171   -0.0310    1.0926 O   0  0  0  0  0  0  0  0  0  0  0  0
    4.0774    0.5975    0.0328 N   0  0  0  0  0  0  0  0  0  0  0  0
   -1.0818    0.4468   -0.8206 N   0  0  0  0  0  0  0  0  0  0  0  0
    4.9126    1.1518    1.1075 C   0  0  0  0  0  0  0  0  0  0  0  0
    4.7347   -0.5465   -0.6146 C   0  0  0  0  0  0  0  0  0  0  0  0
    5.2127    0.0965    2.1733 C   0  0  0  0  0  0  0  0  0  0  0  0
    5.0292   -1.6571    0.3948 C   0  0  0  0  0  0  0  0  0  0  0  0
    3.7602    1.6304   -0.9531 C   0  0  0  0  0  0  0  0  0  0  0  0
    5.8623   -1.1396    1.5618 C   0  0  0  0  0  0  0  0  0  0  0  0
    2.5493    1.2138   -1.7874 C   0  0  0  0  0  0  0  0  0  0  0  0
    1.3139    1.0109   -0.9037 C   0  0  0  0  0  0  0  0  0  0  0  0
    0.0734    0.6248   -1.7047 C   0  0  0  0  0  0  0  0  0  0  0  0
   -1.4901   -0.8665   -0.4945 C   0  0  0  0  0  0  0  0  0  0  0  0
   -1.7130    1.5955   -0.2911 C   0  0  0  0  0  0  0  0  0  0  0  0
   -2.7012   -1.0646    0.1970 C   0  0  0  0  0  0  0  0  0  0  0  0
   -2.9297    1.4593    0.4054 C   0  0  0  0  0  0  0  0  0  0  0  0
   -0.7427   -2.0167   -0.8077 C   0  0  0  0  0  0  0  0  0  0  0  0
   -3.5065    0.1103    0.5974 C   0  0  0  0  0  0  0  0  0  0  0  0
   -3.1620   -2.3469    0.5282 C   0  0  0  0  0  0  0  0  0  0  0  0
   -1.1873    2.8959   -0.4019 C   0  0  0  0  0  0  0  0  0  0  0  0
   -1.1962   -3.2981   -0.4755 C   0  0  0  0  0  0  0  0  0  0  0  0
   -2.4069   -3.4633    0.1863 C   0  0  0  0  0  0  0  0  0  0  0  0
   -3.6069    2.5678    0.9336 C   0  0  0  0  0  0  0  0  0  0  0  0
    0.6276   -1.9875   -1.4130 C   0  0  0  0  0  0  0  0  0  0  0  0
   -1.8571    4.0046    0.1274 C   0  0  0  0  0  0  0  0  0  0  0  0
   -3.0679    3.8413    0.7891 C   0  0  0  0  0  0  0  0  0  0  0  0
   -2.8869   -4.8295    0.5407 C   0  0  0  0  0  0  0  0  0  0  0  0
    5.8539    1.5485    0.7046 H   0  0  0  0  0  0  0  0  0  0  0  0
    4.0981   -0.9836   -1.3902 H   0  0  0  0  0  0  0  0  0  0  0  0
    5.6705   -0.2372   -1.0989 H   0  0  0  0  0  0  0  0  0  0  0  0
    4.3898    1.9836    1.5952 H   0  0  0  0  0  0  0  0  0  0  0  0
    4.2813   -0.1916    2.6773 H   0  0  0  0  0  0  0  0  0  0  0  0
    5.8724    0.5204    2.9388 H   0  0  0  0  0  0  0  0  0  0  0  0
    5.5594   -2.4779   -0.1015 H   0  0  0  0  0  0  0  0  0  0  0  0
    4.0848   -2.0688    0.7734 H   0  0  0  0  0  0  0  0  0  0  0  0
    4.6161    1.8460   -1.6053 H   0  0  0  0  0  0  0  0  0  0  0  0
    3.5074    2.5731   -0.4499 H   0  0  0  0  0  0  0  0  0  0  0  0
    6.8697   -0.8871    1.2090 H   0  0  0  0  0  0  0  0  0  0  0  0
    5.9729   -1.9213    2.3212 H   0  0  0  0  0  0  0  0  0  0  0  0
    2.7480    0.3144   -2.3785 H   0  0  0  0  0  0  0  0  0  0  0  0
    2.3404    2.0122   -2.5108 H   0  0  0  0  0  0  0  0  0  0  0  0
    1.5102    0.2957   -0.1007 H   0  0  0  0  0  0  0  0  0  0  0  0
    1.1728    1.9397   -0.3464 H   0  0  0  0  0  0  0  0  0  0  0  0
   -0.1477    1.4906   -2.3497 H   0  0  0  0  0  0  0  0  0  0  0  0
    0.1925   -0.0968   -2.5035 H   0  0  0  0  0  0  0  0  0  0  0  0
   -4.1029   -2.4781    1.0569 H   0  0  0  0  0  0  0  0  0  0  0  0
   -0.2868    3.1277   -0.9582 H   0  0  0  0  0  0  0  0  0  0  0  0
   -0.6084   -4.1800   -0.7217 H   0  0  0  0  0  0  0  0  0  0  0  0
   -4.5479    2.4551    1.4650 H   0  0  0  0  0  0  0  0  0  0  0  0
    0.6227   -1.8655   -2.4982 H   0  0  0  0  0  0  0  0  0  0  0  0
    1.3610   -1.4082   -0.8728 H   0  0  0  0  0  0  0  0  0  0  0  0
    1.0742   -2.9905   -1.3164 H   0  0  0  0  0  0  0  0  0  0  0  0
   -1.4359    4.9988    0.0061 H   0  0  0  0  0  0  0  0  0  0  0  0
   -3.5882    4.7034    1.1954 H   0  0  0  0  0  0  0  0  0  0  0  0
   -3.4097   -5.2765   -0.3108 H   0  0  0  0  0  0  0  0  0  0  0  0
   -2.0503   -5.4784    0.8215 H   0  0  0  0  0  0  0  0  0  0  0  0
   -3.5721   -4.8037    1.3949 H   0  0  0  0  0  0  0  0  0  0  0  0
  1 18  2  0  0  0  0
  2  4  1  0  0  0  0
  2  5  1  0  0  0  0
  2  8  1  0  0  0  0
  3 12  1  0  0  0  0
  3 13  1  0  0  0  0
  3 14  1  0  0  0  0
  4  6  1  0  0  0  0
  4 28  1  0  0  0  0
  4 31  1  0  0  0  0
  5  7  1  0  0  0  0
  5 29  1  0  0  0  0
  5 30  1  0  0  0  0
  6  9  1  0  0  0  0
  6 32  1  0  0  0  0
  6 33  1  0  0  0  0
  7  9  1  0  0  0  0
  7 34  1  0  0  0  0
  7 35  1  0  0  0  0
  8 10  1  0  0  0  0
  8 36  1  0  0  0  0
  8 37  1  0  0  0  0
  9 38  1  0  0  0  0
  9 39  1  0  0  0  0
 10 11  1  0  0  0  0
 10 40  1  0  0  0  0
 10 41  1  0  0  0  0
 11 12  1  0  0  0  0
 11 42  1  0  0  0  0
 11 43  1  0  0  0  0
 12 44  1  0  0  0  0
 12 45  1  0  0  0  0
 13 15  1  0  0  0  0
 13 17  2  0  0  0  0
 14 16  1  0  0  0  0
 14 20  2  0  0  0  0
 15 18  1  0  0  0  0
 15 19  2  0  0  0  0
 16 18  1  0  0  0  0
 16 23  2  0  0  0  0
 17 21  1  0  0  0  0
 17 24  1  0  0  0  0
 19 22  1  0  0  0  0
 19 46  1  0  0  0  0
 20 25  1  0  0  0  0
 20 47  1  0  0  0  0
 21 22  2  0  0  0  0
 21 48  1  0  0  0  0
 22 27  1  0  0  0  0
 23 26  1  0  0  0  0
 23 49  1  0  0  0  0
 24 50  1  0  0  0  0
 24 51  1  0  0  0  0
 24 52  1  0  0  0  0
 25 26  2  0  0  0  0
 25 53  1  0  0  0  0
 26 54  1  0  0  0  0
 27 55  1  0  0  0  0
 27 56  1  0  0  0  0
 27 57  1  0  0  0  0
M  END
> <PUBCHEM_COMPOUND_CID>
137633964

> <PUBCHEM_CONFORMER_RMSD>
0.8

> <PUBCHEM_CONFORMER_DIVERSEORDER>
1
11
16
3
12
8
6
13
5
7
10
14
15
9
2
4

> <PUBCHEM_MMFF94_PARTIAL_CHARGES>
28
1 -0.57
12 0.37
13 0.1
14 0.1
15 0.09
16 0.09
17 -0.14
18 0.4
19 -0.15
2 -0.81
20 -0.15
21 -0.15
22 -0.14
23 -0.15
24 0.14
25 -0.15
26 -0.15
27 0.14
3 -0.57
4 0.27
46 0.15
47 0.15
48 0.15
49 0.15
5 0.27
53 0.15
54 0.15
8 0.27

> <PUBCHEM_EFFECTIVE_ROTOR_COUNT>
6.2

> <PUBCHEM_PHARMACOPHORE_FEATURES>
7
1 1 acceptor
1 2 cation
1 3 cation
6 13 15 17 19 21 22 rings
6 14 16 20 23 25 26 rings
6 2 4 5 6 7 9 rings
6 3 13 14 15 16 18 rings

> <PUBCHEM_HEAVY_ATOM_COUNT>
27

> <PUBCHEM_ATOM_DEF_STEREO_COUNT>
0

> <PUBCHEM_ATOM_UDEF_STEREO_COUNT>
0

> <PUBCHEM_BOND_DEF_STEREO_COUNT>
0

> <PUBCHEM_BOND_UDEF_STEREO_COUNT>
0

> <PUBCHEM_ISOTOPIC_ATOM_COUNT>
0

> <PUBCHEM_COMPONENT_COUNT>
1

> <PUBCHEM_CACTVS_TAUTO_COUNT>
-1

> <PUBCHEM_CONFORMER_ID>
083420AC00000001

> <PUBCHEM_MMFF94_ENERGY>
93.2845

> <PUBCHEM_FEATURE_SELFOVERLAP>
35.567

> <PUBCHEM_SHAPE_FINGERPRINT>
10074138 170 18411698798895792147
10319926 262 18342175523747636934
10928967 22 17459455677393912066
1100329 8 18051714410364864273
11552529 35 18337106860668090508
11725454 13 17346309350356796436
12107183 9 18191587446141313960
12422481 6 18263373498765541528
12633257 1 18129959956184429497
12788726 201 18119543277912742374
12925494 130 18051971424600854960
13004483 165 18196089069624928687
13140716 1 17910135812694157353
13583140 156 17775272898933114152
13692114 37 18270963445329361127
14178342 30 18409444787401036334
14420673 8 18193842540353859222
14784336 7 17761764470109215131
14950920 106 18265028341961193928
15042514 8 18338528550688418135
15230672 131 18048890589786046142
15475509 35 16670514637640355347
15537594 2 17459469953938718754
15842332 3 17968674820768571676
16110190 28 18191015713339020506
16728300 4 17894911802659870475
17780758 139 18336250302698037944
17818456 19 18408611370107846756
1813 80 17022625269396885228
19319366 153 16963804983318651508
20554085 129 18055620734328706425
21591340 35 16977601113958495608
229767 44 18264485088221110136
23559900 14 18129125405884933764
3117164 225 18338232657675189354
345986 75 18117836835660913314
3886686 26 18193275191842347378
445580 182 18267004104200151136
508706 21 18342464699110054006
56633871 153 18261106353456421882
6371380 46 17909826536446712062
6823239 73 18200051598627220862
7064713 232 18339081476087924212
7097593 13 18334576863106975492
79837 15 18339647724285870803

> <PUBCHEM_SHAPE_MULTIPOLES>
539.82
10.96
5.32
1.53
18.3
1.81
-0.05
0.43
-6.24
-7.92
-0.73
1.72
-0.17
-0.88

> <PUBCHEM_SHAPE_SELFOVERLAP>
1159.624

> <PUBCHEM_SHAPE_VOLUME>
298.2

> <PUBCHEM_COORDINATE_TYPE>
2
5
10

$$$$