137634903
  -OEChem-03242010103D

 58 60  0     0  0  0  0  0  0999 V2000
   -4.7052   -0.3503   -1.0421 O   0  0  0  0  0  0  0  0  0  0  0  0
    4.9004   -2.3432   -2.8342 O   0  0  0  0  0  0  0  0  0  0  0  0
    4.9971    3.3155    0.0516 O   0  0  0  0  0  0  0  0  0  0  0  0
   -1.1544   -0.3286    0.9017 N   0  0  0  0  0  0  0  0  0  0  0  0
    4.0061   -0.2360    0.0563 N   0  0  0  0  0  0  0  0  0  0  0  0
    0.0062   -0.3093    1.7965 C   0  0  0  0  0  0  0  0  0  0  0  0
    1.2741   -0.7103    1.0474 C   0  0  0  0  0  0  0  0  0  0  0  0
    2.5164   -0.7102    1.9447 C   0  0  0  0  0  0  0  0  0  0  0  0
   -1.6507    0.8994    0.4084 C   0  0  0  0  0  0  0  0  0  0  0  0
    3.7571   -1.1477    1.1667 C   0  0  0  0  0  0  0  0  0  0  0  0
   -1.7024   -1.5774    0.5297 C   0  0  0  0  0  0  0  0  0  0  0  0
   -2.8693    0.9214   -0.2978 C   0  0  0  0  0  0  0  0  0  0  0  0
   -2.9222   -1.6178   -0.1732 C   0  0  0  0  0  0  0  0  0  0  0  0
   -0.9860    2.1296    0.5653 C   0  0  0  0  0  0  0  0  0  0  0  0
   -3.5898   -0.3486   -0.5375 C   0  0  0  0  0  0  0  0  0  0  0  0
    4.6210    1.0034    0.5349 C   0  0  0  0  0  0  0  0  0  0  0  0
    4.8592   -0.8704   -0.9500 C   0  0  0  0  0  0  0  0  0  0  0  0
   -3.4160    2.1145   -0.7916 C   0  0  0  0  0  0  0  0  0  0  0  0
   -1.0887   -2.8128    0.8073 C   0  0  0  0  0  0  0  0  0  0  0  0
   -1.5253    3.3221    0.0704 C   0  0  0  0  0  0  0  0  0  0  0  0
   -2.7414    3.3154   -0.6020 C   0  0  0  0  0  0  0  0  0  0  0  0
   -3.5189   -2.8299   -0.5490 C   0  0  0  0  0  0  0  0  0  0  0  0
    0.3802    2.2743    1.1633 C   0  0  0  0  0  0  0  0  0  0  0  0
    4.0368   -1.7633   -1.8654 C   0  0  0  0  0  0  0  0  0  0  0  0
    4.4001    2.1313   -0.4602 C   0  0  0  0  0  0  0  0  0  0  0  0
   -1.6779   -4.0247    0.4305 C   0  0  0  0  0  0  0  0  0  0  0  0
   -2.8940   -4.0333   -0.2416 C   0  0  0  0  0  0  0  0  0  0  0  0
   -3.3128    4.5871   -1.1299 C   0  0  0  0  0  0  0  0  0  0  0  0
   -0.1577   -1.0964    2.5503 H   0  0  0  0  0  0  0  0  0  0  0  0
    0.0716    0.5173    2.4931 H   0  0  0  0  0  0  0  0  0  0  0  0
    1.4243   -0.0952    0.1564 H   0  0  0  0  0  0  0  0  0  0  0  0
    1.2004   -1.7117    0.6174 H   0  0  0  0  0  0  0  0  0  0  0  0
    2.3602   -1.4171    2.7694 H   0  0  0  0  0  0  0  0  0  0  0  0
    2.6449    0.2729    2.4081 H   0  0  0  0  0  0  0  0  0  0  0  0
    3.5775   -2.1716    0.8182 H   0  0  0  0  0  0  0  0  0  0  0  0
    4.6220   -1.2051    1.8407 H   0  0  0  0  0  0  0  0  0  0  0  0
    5.6804   -1.4380   -0.4907 H   0  0  0  0  0  0  0  0  0  0  0  0
    5.3571   -0.1354   -1.5937 H   0  0  0  0  0  0  0  0  0  0  0  0
    5.6927    0.8738    0.7400 H   0  0  0  0  0  0  0  0  0  0  0  0
    4.1940    1.3395    1.4866 H   0  0  0  0  0  0  0  0  0  0  0  0
   -4.3612    2.1101   -1.3288 H   0  0  0  0  0  0  0  0  0  0  0  0
   -0.1769   -2.9072    1.3851 H   0  0  0  0  0  0  0  0  0  0  0  0
   -1.0008    4.2669    0.1967 H   0  0  0  0  0  0  0  0  0  0  0  0
   -4.4629   -2.8529   -1.0864 H   0  0  0  0  0  0  0  0  0  0  0  0
    0.3772    2.2980    2.2552 H   0  0  0  0  0  0  0  0  0  0  0  0
    1.1533    1.6780    0.7040 H   0  0  0  0  0  0  0  0  0  0  0  0
    0.7591    3.2829    0.9311 H   0  0  0  0  0  0  0  0  0  0  0  0
    3.2707   -1.1831   -2.3911 H   0  0  0  0  0  0  0  0  0  0  0  0
    3.5483   -2.5785   -1.3245 H   0  0  0  0  0  0  0  0  0  0  0  0
    3.3309    2.3211   -0.6038 H   0  0  0  0  0  0  0  0  0  0  0  0
    4.8518    1.9300   -1.4351 H   0  0  0  0  0  0  0  0  0  0  0  0
   -1.1897   -4.9630    0.6788 H   0  0  0  0  0  0  0  0  0  0  0  0
   -3.3517   -4.9750   -0.5293 H   0  0  0  0  0  0  0  0  0  0  0  0
   -3.8695    5.1042   -0.3421 H   0  0  0  0  0  0  0  0  0  0  0  0
   -2.5215    5.2500   -1.4964 H   0  0  0  0  0  0  0  0  0  0  0  0
   -3.9901    4.4027   -1.9707 H   0  0  0  0  0  0  0  0  0  0  0  0
    4.3494   -2.8984   -3.4120 H   0  0  0  0  0  0  0  0  0  0  0  0
    4.8281    4.0227   -0.5941 H   0  0  0  0  0  0  0  0  0  0  0  0
  1 15  2  0  0  0  0
  2 24  1  0  0  0  0
  2 57  1  0  0  0  0
  3 25  1  0  0  0  0
  3 58  1  0  0  0  0
  4  6  1  0  0  0  0
  4  9  1  0  0  0  0
  4 11  1  0  0  0  0
  5 10  1  0  0  0  0
  5 16  1  0  0  0  0
  5 17  1  0  0  0  0
  6  7  1  0  0  0  0
  6 29  1  0  0  0  0
  6 30  1  0  0  0  0
  7  8  1  0  0  0  0
  7 31  1  0  0  0  0
  7 32  1  0  0  0  0
  8 10  1  0  0  0  0
  8 33  1  0  0  0  0
  8 34  1  0  0  0  0
  9 12  1  0  0  0  0
  9 14  2  0  0  0  0
 10 35  1  0  0  0  0
 10 36  1  0  0  0  0
 11 13  1  0  0  0  0
 11 19  2  0  0  0  0
 12 15  1  0  0  0  0
 12 18  2  0  0  0  0
 13 15  1  0  0  0  0
 13 22  2  0  0  0  0
 14 20  1  0  0  0  0
 14 23  1  0  0  0  0
 16 25  1  0  0  0  0
 16 39  1  0  0  0  0
 16 40  1  0  0  0  0
 17 24  1  0  0  0  0
 17 37  1  0  0  0  0
 17 38  1  0  0  0  0
 18 21  1  0  0  0  0
 18 41  1  0  0  0  0
 19 26  1  0  0  0  0
 19 42  1  0  0  0  0
 20 21  2  0  0  0  0
 20 43  1  0  0  0  0
 21 28  1  0  0  0  0
 22 27  1  0  0  0  0
 22 44  1  0  0  0  0
 23 45  1  0  0  0  0
 23 46  1  0  0  0  0
 23 47  1  0  0  0  0
 24 48  1  0  0  0  0
 24 49  1  0  0  0  0
 25 50  1  0  0  0  0
 25 51  1  0  0  0  0
 26 27  2  0  0  0  0
 26 52  1  0  0  0  0
 27 53  1  0  0  0  0
 28 54  1  0  0  0  0
 28 55  1  0  0  0  0
 28 56  1  0  0  0  0
M  END
> <PUBCHEM_COMPOUND_CID>
137634903

> <PUBCHEM_CONFORMER_RMSD>
1

> <PUBCHEM_CONFORMER_DIVERSEORDER>
1
17
18
7
13
3
15
4
5
11
6
16
12
2
10
14
8
19
20
9

> <PUBCHEM_MMFF94_PARTIAL_CHARGES>
34
1 -0.57
10 0.27
11 0.1
12 0.09
13 0.09
14 -0.14
15 0.4
16 0.27
17 0.27
18 -0.15
19 -0.15
2 -0.68
20 -0.15
21 -0.14
22 -0.15
23 0.14
24 0.28
25 0.28
26 -0.15
27 -0.15
28 0.14
3 -0.68
4 -0.57
41 0.15
42 0.15
43 0.15
44 0.15
5 -0.81
52 0.15
53 0.15
57 0.4
58 0.4
6 0.37
9 0.1

> <PUBCHEM_EFFECTIVE_ROTOR_COUNT>
9

> <PUBCHEM_PHARMACOPHORE_FEATURES>
10
1 1 acceptor
1 2 acceptor
1 2 donor
1 3 acceptor
1 3 donor
1 4 cation
1 5 cation
6 11 13 19 22 26 27 rings
6 4 9 11 12 13 15 rings
6 9 12 14 18 20 21 rings

> <PUBCHEM_HEAVY_ATOM_COUNT>
28

> <PUBCHEM_ATOM_DEF_STEREO_COUNT>
0

> <PUBCHEM_ATOM_UDEF_STEREO_COUNT>
0

> <PUBCHEM_BOND_DEF_STEREO_COUNT>
0

> <PUBCHEM_BOND_UDEF_STEREO_COUNT>
0

> <PUBCHEM_ISOTOPIC_ATOM_COUNT>
0

> <PUBCHEM_COMPONENT_COUNT>
1

> <PUBCHEM_CACTVS_TAUTO_COUNT>
-1

> <PUBCHEM_CONFORMER_ID>
0834245700000001

> <PUBCHEM_MMFF94_ENERGY>
102.1313

> <PUBCHEM_FEATURE_SELFOVERLAP>
50.79

> <PUBCHEM_SHAPE_FINGERPRINT>
11534866 41 11010207629188351684
12788726 201 18261661649624732187
13140716 1 18118939582137457603
13617811 41 18334572413673415551
14068700 686 18053379083391158152
14117953 113 17470991598177355716
14251757 5 18409441514261371307
14363568 33 17180257015653288979
14790565 3 18338795590491602361
15475509 35 12458156772781768645
15475509 8 18272374192089724183
15961568 22 18048035461411842044
19319366 153 17677311888718513707
20775438 99 18055883611780027132
21033650 10 18187656790803833410
22122407 14 15213584429693209679
235170 7 18201727309776382630
23557571 272 18200861929684775504
23559900 14 18201155430686010710
23572383 38 17772755962405015342
25265897 201 18195836014499466428
312425 83 18337408058419604294
340366 18 17829882132196371786
46194498 28 18272381875674745638
463206 1 17613722943389945498
5309563 4 17690279730302597702
9709674 26 18342461426534670164

> <PUBCHEM_SHAPE_MULTIPOLES>
548.66
10.36
5.72
1.63
13.44
1.25
-0.47
1.08
-5.04
-5.53
-1.27
2.08
-0.73
1.81

> <PUBCHEM_SHAPE_SELFOVERLAP>
1159.28

> <PUBCHEM_SHAPE_VOLUME>
308.7

> <PUBCHEM_COORDINATE_TYPE>
2
5
10

$$$$