137645040
  -OEChem-03242010103D

 60 63  0     0  0  0  0  0  0999 V2000
   -8.8127   -1.1520   -1.5056 O   0  0  0  0  0  0  0  0  0  0  0  0
    4.8328   -0.4717   -1.9511 O   0  0  0  0  0  0  0  0  0  0  0  0
   -2.9904    1.0672    0.4040 N   0  0  0  0  0  0  0  0  0  0  0  0
   -5.7368    0.3357   -0.1254 N   0  0  0  0  0  0  0  0  0  0  0  0
    1.9140    0.5037    0.6788 N   0  0  0  0  0  0  0  0  0  0  0  0
   -3.3987   -0.3393    0.3025 C   0  0  0  0  0  0  0  0  0  0  0  0
   -4.1055    1.8913    0.8859 C   0  0  0  0  0  0  0  0  0  0  0  0
   -5.3281    1.7421   -0.0260 C   0  0  0  0  0  0  0  0  0  0  0  0
   -4.6221   -0.4886   -0.6083 C   0  0  0  0  0  0  0  0  0  0  0  0
   -1.8259    1.2080    1.2762 C   0  0  0  0  0  0  0  0  0  0  0  0
   -0.5304    0.7902    0.5736 C   0  0  0  0  0  0  0  0  0  0  0  0
    0.7208    0.8679    1.4479 C   0  0  0  0  0  0  0  0  0  0  0  0
   -6.9023    0.1941   -0.9960 C   0  0  0  0  0  0  0  0  0  0  0  0
    2.1980   -0.8662    0.4771 C   0  0  0  0  0  0  0  0  0  0  0  0
    2.7591    1.5350    0.2094 C   0  0  0  0  0  0  0  0  0  0  0  0
    3.2273   -1.2379   -0.4096 C   0  0  0  0  0  0  0  0  0  0  0  0
   -7.6822   -1.0639   -0.6483 C   0  0  0  0  0  0  0  0  0  0  0  0
    3.8027    1.2237   -0.6840 C   0  0  0  0  0  0  0  0  0  0  0  0
    1.5156   -1.9091    1.1302 C   0  0  0  0  0  0  0  0  0  0  0  0
    4.0137   -0.1840   -1.0879 C   0  0  0  0  0  0  0  0  0  0  0  0
    3.5371   -2.5823   -0.6606 C   0  0  0  0  0  0  0  0  0  0  0  0
    2.6352    2.8822    0.5958 C   0  0  0  0  0  0  0  0  0  0  0  0
    1.8240   -3.2521    0.8865 C   0  0  0  0  0  0  0  0  0  0  0  0
    2.8293   -3.5882   -0.0119 C   0  0  0  0  0  0  0  0  0  0  0  0
    4.6574    2.2110   -1.1947 C   0  0  0  0  0  0  0  0  0  0  0  0
    0.3472   -1.7031    2.0453 C   0  0  0  0  0  0  0  0  0  0  0  0
    3.4885    3.8703    0.0923 C   0  0  0  0  0  0  0  0  0  0  0  0
    4.4945    3.5359   -0.8061 C   0  0  0  0  0  0  0  0  0  0  0  0
    3.1379   -5.0200   -0.2900 C   0  0  0  0  0  0  0  0  0  0  0  0
   -3.6292   -0.7534    1.2938 H   0  0  0  0  0  0  0  0  0  0  0  0
   -2.5981   -0.9517   -0.1250 H   0  0  0  0  0  0  0  0  0  0  0  0
   -3.8127    2.9484    0.8920 H   0  0  0  0  0  0  0  0  0  0  0  0
   -4.3754    1.6201    1.9156 H   0  0  0  0  0  0  0  0  0  0  0  0
   -6.1443    2.3386    0.3997 H   0  0  0  0  0  0  0  0  0  0  0  0
   -5.1035    2.1549   -1.0190 H   0  0  0  0  0  0  0  0  0  0  0  0
   -4.3473   -0.2146   -1.6362 H   0  0  0  0  0  0  0  0  0  0  0  0
   -4.9016   -1.5479   -0.6187 H   0  0  0  0  0  0  0  0  0  0  0  0
   -1.7048    2.2607    1.5649 H   0  0  0  0  0  0  0  0  0  0  0  0
   -1.9574    0.6470    2.2103 H   0  0  0  0  0  0  0  0  0  0  0  0
   -0.6210   -0.1707    0.0614 H   0  0  0  0  0  0  0  0  0  0  0  0
   -0.3844    1.4946   -0.2607 H   0  0  0  0  0  0  0  0  0  0  0  0
    0.6675    0.4498    2.4457 H   0  0  0  0  0  0  0  0  0  0  0  0
    0.7378    1.9114    1.7626 H   0  0  0  0  0  0  0  0  0  0  0  0
   -6.6357    0.2117   -2.0610 H   0  0  0  0  0  0  0  0  0  0  0  0
   -7.5899    1.0402   -0.8585 H   0  0  0  0  0  0  0  0  0  0  0  0
   -8.0360   -1.0336    0.3879 H   0  0  0  0  0  0  0  0  0  0  0  0
   -7.0861   -1.9697   -0.7911 H   0  0  0  0  0  0  0  0  0  0  0  0
    4.3312   -2.8478   -1.3540 H   0  0  0  0  0  0  0  0  0  0  0  0
    1.8976    3.2479    1.2990 H   0  0  0  0  0  0  0  0  0  0  0  0
    1.2762   -4.0516    1.3808 H   0  0  0  0  0  0  0  0  0  0  0  0
    5.4575    1.9634   -1.8870 H   0  0  0  0  0  0  0  0  0  0  0  0
    0.6455   -1.2755    3.0060 H   0  0  0  0  0  0  0  0  0  0  0  0
   -0.5647   -1.3154    1.6143 H   0  0  0  0  0  0  0  0  0  0  0  0
   -0.0098   -2.6908    2.3806 H   0  0  0  0  0  0  0  0  0  0  0  0
    3.3653    4.9029    0.4073 H   0  0  0  0  0  0  0  0  0  0  0  0
    5.1556    4.3042   -1.1955 H   0  0  0  0  0  0  0  0  0  0  0  0
   -9.2969   -1.9581   -1.2577 H   0  0  0  0  0  0  0  0  0  0  0  0
    3.5990   -5.1456   -1.2756 H   0  0  0  0  0  0  0  0  0  0  0  0
    2.2254   -5.6259   -0.2845 H   0  0  0  0  0  0  0  0  0  0  0  0
    3.8252   -5.4101    0.4673 H   0  0  0  0  0  0  0  0  0  0  0  0
  1 17  1  0  0  0  0
  1 57  1  0  0  0  0
  2 20  2  0  0  0  0
  3  6  1  0  0  0  0
  3  7  1  0  0  0  0
  3 10  1  0  0  0  0
  4  8  1  0  0  0  0
  4  9  1  0  0  0  0
  4 13  1  0  0  0  0
  5 12  1  0  0  0  0
  5 14  1  0  0  0  0
  5 15  1  0  0  0  0
  6  9  1  0  0  0  0
  6 30  1  0  0  0  0
  6 31  1  0  0  0  0
  7  8  1  0  0  0  0
  7 32  1  0  0  0  0
  7 33  1  0  0  0  0
  8 34  1  0  0  0  0
  8 35  1  0  0  0  0
  9 36  1  0  0  0  0
  9 37  1  0  0  0  0
 10 11  1  0  0  0  0
 10 38  1  0  0  0  0
 10 39  1  0  0  0  0
 11 12  1  0  0  0  0
 11 40  1  0  0  0  0
 11 41  1  0  0  0  0
 12 42  1  0  0  0  0
 12 43  1  0  0  0  0
 13 17  1  0  0  0  0
 13 44  1  0  0  0  0
 13 45  1  0  0  0  0
 14 16  1  0  0  0  0
 14 19  2  0  0  0  0
 15 18  1  0  0  0  0
 15 22  2  0  0  0  0
 16 20  1  0  0  0  0
 16 21  2  0  0  0  0
 17 46  1  0  0  0  0
 17 47  1  0  0  0  0
 18 20  1  0  0  0  0
 18 25  2  0  0  0  0
 19 23  1  0  0  0  0
 19 26  1  0  0  0  0
 21 24  1  0  0  0  0
 21 48  1  0  0  0  0
 22 27  1  0  0  0  0
 22 49  1  0  0  0  0
 23 24  2  0  0  0  0
 23 50  1  0  0  0  0
 24 29  1  0  0  0  0
 25 28  1  0  0  0  0
 25 51  1  0  0  0  0
 26 52  1  0  0  0  0
 26 53  1  0  0  0  0
 26 54  1  0  0  0  0
 27 28  2  0  0  0  0
 27 55  1  0  0  0  0
 28 56  1  0  0  0  0
 29 58  1  0  0  0  0
 29 59  1  0  0  0  0
 29 60  1  0  0  0  0
M  END
> <PUBCHEM_COMPOUND_CID>
137645040

> <PUBCHEM_CONFORMER_RMSD>
0.8

> <PUBCHEM_CONFORMER_DIVERSEORDER>
3
29
19
5
18
20
11
26
34
30
24
15
10
13
31
28
6
40
16
38
14
23
41
37
9
36
2
27
12
35
21
33
39
32
22
1
4
17
7
8
25

> <PUBCHEM_MMFF94_PARTIAL_CHARGES>
35
1 -0.68
10 0.27
12 0.37
13 0.27
14 0.1
15 0.1
16 0.09
17 0.28
18 0.09
19 -0.14
2 -0.57
20 0.4
21 -0.15
22 -0.15
23 -0.15
24 -0.14
25 -0.15
26 0.14
27 -0.15
28 -0.15
29 0.14
3 -0.81
4 -0.81
48 0.15
49 0.15
5 -0.57
50 0.15
51 0.15
55 0.15
56 0.15
57 0.4
6 0.27
7 0.27
8 0.27
9 0.27

> <PUBCHEM_EFFECTIVE_ROTOR_COUNT>
7.2

> <PUBCHEM_PHARMACOPHORE_FEATURES>
10
1 1 acceptor
1 1 donor
1 2 acceptor
1 3 cation
1 4 cation
1 5 cation
6 14 16 19 21 23 24 rings
6 15 18 22 25 27 28 rings
6 3 4 6 7 8 9 rings
6 5 14 15 16 18 20 rings

> <PUBCHEM_HEAVY_ATOM_COUNT>
29

> <PUBCHEM_ATOM_DEF_STEREO_COUNT>
0

> <PUBCHEM_ATOM_UDEF_STEREO_COUNT>
0

> <PUBCHEM_BOND_DEF_STEREO_COUNT>
0

> <PUBCHEM_BOND_UDEF_STEREO_COUNT>
0

> <PUBCHEM_ISOTOPIC_ATOM_COUNT>
0

> <PUBCHEM_COMPONENT_COUNT>
1

> <PUBCHEM_CACTVS_TAUTO_COUNT>
-1

> <PUBCHEM_CONFORMER_ID>
08344BF000000003

> <PUBCHEM_MMFF94_ENERGY>
108.3651

> <PUBCHEM_FEATURE_SELFOVERLAP>
50.793

> <PUBCHEM_SHAPE_FINGERPRINT>
10595046 47 18413672405389071353
10622 236 18056190285609411707
10693767 8 18056491564991873198
11181472 205 18341049628632004189
11408170 132 18263349332245986781
11443803 9 18118110597346268816
11719270 70 18411693327265991784
12107183 9 17766570049430038753
12661589 4 16342842387313491815
12730499 353 18261968421694903096
13150687 139 18270126833150553364
13533116 47 18412542103150643653
1361 2 18335984276334121261
13692114 37 18268136742452063346
14347332 77 18271802368691340017
14528608 73 18335140899481419865
15082195 135 18410573976915522963
15183329 4 17917431996031568577
15250474 111 18272930501648743687
15475509 35 14117524198854761012
16993427 108 17172065237768355026
17134984 74 18339921614719848559
19026451 147 18340767023139527706
19319366 153 18271519896517241446
20554085 129 18057593456015791576
20775438 99 18408601461439888971
21344244 246 18339365167695423706
21360442 67 18262234534312684483
21521239 73 18130801053300578884
21599406 157 18189876726661293295
23522609 53 17916046637071637425
23559900 14 18198049297320903329
238 59 18338813264159998138
24771293 8 18197216954603234674
25223398 141 17460903892710123402
3004659 81 18059575754587979497
4046055 25 17689721857375976286
44280117 145 17114952090233761182
44317340 157 18336550426533978665
46194498 28 18261665987604737935
484989 97 18193015900682651690
57634706 280 17558815428891195592
59682541 52 18337383860531647325
6004065 56 18412263914008537472
6025842 7 18409445907706751952
6058803 2 18057058912232377793
6327066 14 17972884941139171756
70251023 43 18265052440204968457
7471813 234 17903648380515572466

> <PUBCHEM_SHAPE_MULTIPOLES>
570.12
16.7
5
1.42
46.84
2.88
0.1
-1.06
-9.96
-9.85
-0.06
-0.11
0.19
-1.41

> <PUBCHEM_SHAPE_SELFOVERLAP>
1218.897

> <PUBCHEM_SHAPE_VOLUME>
316.5

> <PUBCHEM_COORDINATE_TYPE>
2
5
10

$$$$