18
 OpenBabel03292021423D

124127  0  0  1  0  0  0  0  0999 V2000
    7.5904    3.8824   -1.0463 C   0  0  0  0  0  0  0  0  0  0  0  0
    6.5997    2.7450   -1.1044 C   0  0  0  0  0  0  0  0  0  0  0  0
    5.7632    2.6854   -2.0113 O   0  0  0  0  0  0  0  0  0  0  0  0
    6.6022    1.7317    0.0413 C   0  0  0  0  0  0  0  0  0  0  0  0
    7.4424    0.4142    0.0226 C   0  0  0  0  0  0  0  0  0  0  0  0
    8.9552    0.4387   -0.3068 C   0  0  1  0  0  0  0  0  0  0  0  0
   10.1246   -0.3527    0.4607 C   0  0  0  0  0  0  0  0  0  0  0  0
   11.1346    0.3479    0.6307 O   0  0  0  0  0  0  0  0  0  0  0  0
   10.1990   -1.6949    0.8797 N   0  0  0  0  0  0  0  0  0  0  0  0
   11.5568   -2.3158    1.4768 C   0  0  1  0  0  0  0  0  0  0  0  0
   11.8314   -3.6906    2.4427 C   0  0  0  0  0  0  0  0  0  0  0  0
   12.8372   -4.6895    1.8426 C   0  0  0  0  0  0  0  0  0  0  0  0
   12.4146   -3.4543    3.8967 C   0  0  0  0  0  0  0  0  0  0  0  0
   11.9857   -1.2437    2.4330 C   0  0  0  0  0  0  0  0  0  0  0  0
   13.1256   -0.7797    2.4332 O   0  0  0  0  0  0  0  0  0  0  0  0
   11.1479   -0.9721    3.4788 N   0  0  0  0  0  0  0  0  0  0  0  0
    9.7096   -1.2689    3.8608 C   0  0  1  0  0  0  0  0  0  0  0  0
    9.0588    0.1035    4.0967 C   0  0  0  0  0  0  0  0  0  0  0  0
    9.8841    0.9659    5.0406 C   0  0  0  0  0  0  0  0  0  0  0  0
    9.8801    0.6745    6.4141 C   0  0  0  0  0  0  0  0  0  0  0  0
   10.7265    1.3660    7.2781 C   0  0  0  0  0  0  0  0  0  0  0  0
   10.7470    1.0891    8.6126 O   0  0  0  0  0  0  0  0  0  0  0  0
   11.5879    2.3446    6.8027 C   0  0  0  0  0  0  0  0  0  0  0  0
   11.6073    2.6217    5.4421 C   0  0  0  0  0  0  0  0  0  0  0  0
   12.4652    3.5358    4.9698 F   0  0  0  0  0  0  0  0  0  0  0  0
   10.7666    1.9464    4.5572 C   0  0  0  0  0  0  0  0  0  0  0  0
    8.7779   -2.4168    3.2224 C   0  0  0  0  0  0  0  0  0  0  0  0
    9.2552   -3.3647    2.5488 O   0  0  0  0  0  0  0  0  0  0  0  0
    7.4312   -2.5943    3.5449 N   0  0  0  0  0  0  0  0  0  0  0  0
    6.4143   -1.6194    3.1406 C   0  0  0  0  0  0  0  0  0  0  0  0
    5.8777   -1.9174    1.7381 C   0  0  0  0  0  0  0  0  0  0  0  0
    5.3633   -3.3358    1.6114 C   0  0  0  0  0  0  0  0  0  0  0  0
    6.5049   -4.2865    1.9638 C   0  0  3  0  0  0  0  0  0  0  0  0
    6.9287   -4.0185    3.3740 N   0  0  0  0  0  0  0  0  0  0  0  0
    6.0362   -5.7222    1.7268 C   0  0  0  0  0  0  0  0  0  0  0  0
    4.9317   -6.1536    2.0405 O   0  0  0  0  0  0  0  0  0  0  0  0
    6.8660   -6.4099    0.9034 O   0  0  0  0  0  0  0  0  0  0  0  0
    7.9325   -7.2848    1.3779 C   0  0  2  0  0  0  0  0  0  0  0  0
    8.1480   -7.3851    2.8983 C   0  0  0  0  0  0  0  0  0  0  0  0
    6.9112   -7.8162    3.6774 C   0  0  0  0  0  0  0  0  0  0  0  0
    9.3507   -7.2623    3.5042 C   0  0  0  0  0  0  0  0  0  0  0  0
    9.5993   -7.6119    4.8945 C   0  0  0  0  0  0  0  0  0  0  0  0
    9.4728   -8.8762    5.3382 C   0  0  0  0  0  0  0  0  0  0  0  0
    9.3961   -9.1692    6.7991 C   0  0  0  0  0  0  0  0  0  0  0  0
    9.6847   -8.3173    7.6331 O   0  0  0  0  0  0  0  0  0  0  0  0
    8.7958  -10.3738    7.1000 N   0  0  0  0  0  0  0  0  0  0  0  0
    8.5513  -10.8407    8.4557 C   0  0  0  0  0  0  0  0  0  0  0  0
    7.2562  -11.6508    8.4578 C   0  0  0  0  0  0  0  0  0  0  0  0
    7.3045  -12.7408    7.3852 C   0  0  0  0  0  0  0  0  0  0  0  0
    7.7831  -12.1708    6.0501 C   0  0  0  0  0  0  0  0  0  0  0  0
    9.0194  -11.4655    6.2216 O   0  0  0  0  0  0  0  0  0  0  0  0
    9.1708   -7.0895    0.4341 C   0  0  0  0  0  0  0  0  0  0  0  0
    9.3764   -5.6795   -0.0441 C   0  0  0  0  0  0  0  0  0  0  0  0
    9.5149   -5.3223   -1.3320 C   0  0  0  0  0  0  0  0  0  0  0  0
    9.4014   -3.9436   -1.7246 C   0  0  0  0  0  0  0  0  0  0  0  0
   10.3176   -3.2520   -2.4176 C   0  0  0  0  0  0  0  0  0  0  0  0
   10.2535   -1.7927   -2.8089 C   0  0  2  0  0  0  0  0  0  0  0  0
   11.4341   -1.1882   -2.2942 O   0  0  0  0  0  0  0  0  0  0  0  0
    8.9643   -1.0098   -2.4103 C   0  0  2  0  0  0  0  0  0  0  0  0
    7.9558   -1.0320   -3.5723 C   0  0  0  0  0  0  0  0  0  0  0  0
    9.2378    0.3950   -1.8339 C   0  0  1  0  0  0  0  0  0  0  0  0
    8.4211    1.3692   -2.4720 O   0  0  0  0  0  0  0  0  0  0  0  0
    7.0810    4.8270   -1.2532 H   0  0  0  0  0  0  0  0  0  0  0  0
    8.3887    3.7402   -1.7806 H   0  0  0  0  0  0  0  0  0  0  0  0
    8.0347    3.9538   -0.0491 H   0  0  0  0  0  0  0  0  0  0  0  0
    5.5444    1.4388    0.1422 H   0  0  0  0  0  0  0  0  0  0  0  0
    6.8114    2.2904    0.9609 H   0  0  0  0  0  0  0  0  0  0  0  0
    6.9148   -0.2841   -0.6391 H   0  0  0  0  0  0  0  0  0  0  0  0
    7.3552    0.0458    1.0405 H   0  0  0  0  0  0  0  0  0  0  0  0
    9.1919    1.4737   -0.0054 H   0  0  0  0  0  0  0  0  0  0  0  0
    9.5081   -2.3877    0.5829 H   0  0  0  0  0  0  0  0  0  0  0  0
   12.2239   -2.3778    0.6129 H   0  0  0  0  0  0  0  0  0  0  0  0
   10.9553   -4.3181    2.5695 H   0  0  0  0  0  0  0  0  0  0  0  0
   13.8154   -4.2330    1.6777 H   0  0  0  0  0  0  0  0  0  0  0  0
   12.4587   -5.1383    0.9250 H   0  0  0  0  0  0  0  0  0  0  0  0
   12.9942   -5.5239    2.5495 H   0  0  0  0  0  0  0  0  0  0  0  0
   13.3233   -2.8386    3.8800 H   0  0  0  0  0  0  0  0  0  0  0  0
   12.7092   -4.3896    4.3891 H   0  0  0  0  0  0  0  0  0  0  0  0
   11.6961   -3.0075    4.5866 H   0  0  0  0  0  0  0  0  0  0  0  0
   11.6566   -0.3543    4.1074 H   0  0  0  0  0  0  0  0  0  0  0  0
    9.8639   -1.7031    4.8624 H   0  0  0  0  0  0  0  0  0  0  0  0
    8.0742   -0.0021    4.5582 H   0  0  0  0  0  0  0  0  0  0  0  0
    8.9243    0.6265    3.1363 H   0  0  0  0  0  0  0  0  0  0  0  0
    9.2393   -0.1164    6.7954 H   0  0  0  0  0  0  0  0  0  0  0  0
   10.1271    0.3645    8.7979 H   0  0  0  0  0  0  0  0  0  0  0  0
   12.2515    2.8767    7.4757 H   0  0  0  0  0  0  0  0  0  0  0  0
   10.8626    2.1530    3.4924 H   0  0  0  0  0  0  0  0  0  0  0  0
    6.8344   -0.6191    3.1248 H   0  0  0  0  0  0  0  0  0  0  0  0
    5.6128   -1.6523    3.8857 H   0  0  0  0  0  0  0  0  0  0  0  0
    6.6936   -1.8391    1.0143 H   0  0  0  0  0  0  0  0  0  0  0  0
    5.1046   -1.1943    1.4641 H   0  0  0  0  0  0  0  0  0  0  0  0
    5.0272   -3.5141    0.5823 H   0  0  0  0  0  0  0  0  0  0  0  0
    4.4976   -3.4874    2.2653 H   0  0  0  0  0  0  0  0  0  0  0  0
    7.3326   -4.0997    1.2733 H   0  0  0  0  0  0  0  0  0  0  0  0
    7.7472   -4.6195    3.5508 H   0  0  0  0  0  0  0  0  0  0  0  0
    7.5779   -8.2908    1.1134 H   0  0  0  0  0  0  0  0  0  0  0  0
    7.1147   -8.2050    4.6797 H   0  0  0  0  0  0  0  0  0  0  0  0
    6.3742   -8.6099    3.1428 H   0  0  0  0  0  0  0  0  0  0  0  0
    6.2414   -6.9769    3.8474 H   0  0  0  0  0  0  0  0  0  0  0  0
   10.2391   -6.9338    2.9690 H   0  0  0  0  0  0  0  0  0  0  0  0
    9.8117   -6.7936    5.5780 H   0  0  0  0  0  0  0  0  0  0  0  0
    9.2503   -9.6866    4.6552 H   0  0  0  0  0  0  0  0  0  0  0  0
    8.4686   -9.9884    9.1374 H   0  0  0  0  0  0  0  0  0  0  0  0
    9.4025  -11.4545    8.7713 H   0  0  0  0  0  0  0  0  0  0  0  0
    6.4128  -10.9824    8.2394 H   0  0  0  0  0  0  0  0  0  0  0  0
    7.0737  -12.0909    9.4437 H   0  0  0  0  0  0  0  0  0  0  0  0
    6.3210  -13.2084    7.2682 H   0  0  0  0  0  0  0  0  0  0  0  0
    8.0033  -13.5193    7.7147 H   0  0  0  0  0  0  0  0  0  0  0  0
    7.0393  -11.4977    5.6081 H   0  0  0  0  0  0  0  0  0  0  0  0
    7.9606  -12.9855    5.3407 H   0  0  0  0  0  0  0  0  0  0  0  0
    8.9996   -7.7160   -0.4510 H   0  0  0  0  0  0  0  0  0  0  0  0
   10.0947   -7.4647    0.8846 H   0  0  0  0  0  0  0  0  0  0  0  0
    9.3399   -4.9112    0.7263 H   0  0  0  0  0  0  0  0  0  0  0  0
    9.5678   -6.0639   -2.1220 H   0  0  0  0  0  0  0  0  0  0  0  0
    8.4714   -3.4901   -1.3942 H   0  0  0  0  0  0  0  0  0  0  0  0
   11.2280   -3.7575   -2.7261 H   0  0  0  0  0  0  0  0  0  0  0  0
   10.3589   -1.7315   -3.8986 H   0  0  0  0  0  0  0  0  0  0  0  0
   11.4705   -1.2962   -1.3286 H   0  0  0  0  0  0  0  0  0  0  0  0
    8.4592   -1.5515   -1.6096 H   0  0  0  0  0  0  0  0  0  0  0  0
    8.3256   -0.4669   -4.4344 H   0  0  0  0  0  0  0  0  0  0  0  0
    6.9937   -0.6025   -3.2693 H   0  0  0  0  0  0  0  0  0  0  0  0
    7.7623   -2.0585   -3.8996 H   0  0  0  0  0  0  0  0  0  0  0  0
   10.2628    0.7329   -1.9982 H   0  0  0  0  0  0  0  0  0  0  0  0
    8.7468    1.4996   -3.3810 H   0  0  0  0  0  0  0  0  0  0  0  0
  1  2  1  0  0  0  0
  1 63  1  0  0  0  0
  1 64  1  0  0  0  0
  1 65  1  0  0  0  0
  2  3  2  0  0  0  0
  2  4  1  0  0  0  0
  4  5  1  0  0  0  0
  4 66  1  0  0  0  0
  4 67  1  0  0  0  0
  5 68  1  0  0  0  0
  5 69  1  0  0  0  0
  6  7  1  0  0  0  0
  6 61  1  0  0  0  0
  6  5  1  0  0  0  0
  6 70  1  1  0  0  0
  7  8  2  0  0  0  0
  7  9  1  0  0  0  0
  9 10  1  0  0  0  0
  9 71  1  0  0  0  0
 10 11  1  0  0  0  0
 10 14  1  0  0  0  0
 10 72  1  1  0  0  0
 11 12  1  0  0  0  0
 11 13  1  0  0  0  0
 11 73  1  0  0  0  0
 12 74  1  0  0  0  0
 12 75  1  0  0  0  0
 12 76  1  0  0  0  0
 13 77  1  0  0  0  0
 13 78  1  0  0  0  0
 13 79  1  0  0  0  0
 14 15  2  0  0  0  0
 14 16  1  0  0  0  0
 16 17  1  0  0  0  0
 16 80  1  0  0  0  0
 17 18  1  0  0  0  0
 17 27  1  0  0  0  0
 17 81  1  1  0  0  0
 18 19  1  0  0  0  0
 18 82  1  0  0  0  0
 18 83  1  0  0  0  0
 19 20  1  0  0  0  0
 19 26  2  0  0  0  0
 20 21  2  0  0  0  0
 20 84  1  0  0  0  0
 21 22  1  0  0  0  0
 21 23  1  0  0  0  0
 22 85  1  0  0  0  0
 23 24  2  0  0  0  0
 23 86  1  0  0  0  0
 24 25  1  0  0  0  0
 24 26  1  0  0  0  0
 26 87  1  0  0  0  0
 27 28  2  0  0  0  0
 27 29  1  0  0  0  0
 29 30  1  0  0  0  0
 29 34  1  0  0  0  0
 30 31  1  0  0  0  0
 30 88  1  0  0  0  0
 30 89  1  0  0  0  0
 31 32  1  0  0  0  0
 31 90  1  0  0  0  0
 31 91  1  0  0  0  0
 32 33  1  0  0  0  0
 32 92  1  0  0  0  0
 32 93  1  0  0  0  0
 33 34  1  0  0  0  0
 33 35  1  0  0  0  0
 33 94  1  0  0  0  0
 34 95  1  0  0  0  0
 35 36  2  0  0  0  0
 35 37  1  0  0  0  0
 37 38  1  0  0  0  0
 38 52  1  0  0  0  0
 38 39  1  0  0  0  0
 38 96  1  6  0  0  0
 39 40  1  0  0  0  0
 39 41  2  0  0  0  0
 40 97  1  0  0  0  0
 40 98  1  0  0  0  0
 40 99  1  0  0  0  0
 41 42  1  0  0  0  0
 41100  1  0  0  0  0
 42 43  2  0  0  0  0
 42101  1  0  0  0  0
 43 44  1  0  0  0  0
 43102  1  0  0  0  0
 44 45  2  0  0  0  0
 44 46  1  0  0  0  0
 46 47  1  0  0  0  0
 46 51  1  0  0  0  0
 47 48  1  0  0  0  0
 47103  1  0  0  0  0
 47104  1  0  0  0  0
 48 49  1  0  0  0  0
 48105  1  0  0  0  0
 48106  1  0  0  0  0
 49 50  1  0  0  0  0
 49107  1  0  0  0  0
 49108  1  0  0  0  0
 50 51  1  0  0  0  0
 50109  1  0  0  0  0
 50110  1  0  0  0  0
 52 53  1  0  0  0  0
 52111  1  0  0  0  0
 52112  1  0  0  0  0
 53 54  2  0  0  0  0
 53113  1  0  0  0  0
 54 55  1  0  0  0  0
 54114  1  0  0  0  0
 55 56  2  0  0  0  0
 55115  1  0  0  0  0
 56 57  1  0  0  0  0
 56116  1  0  0  0  0
 57 59  1  0  0  0  0
 57 58  1  0  0  0  0
 57117  1  6  0  0  0
 58118  1  0  0  0  0
 59 61  1  0  0  0  0
 59 60  1  0  0  0  0
 59119  1  1  0  0  0
 60120  1  0  0  0  0
 60121  1  0  0  0  0
 60122  1  0  0  0  0
 61 62  1  0  0  0  0
 61123  1  6  0  0  0
 62124  1  0  0  0  0
M  END
>  <Energy>
355.554

$$$$