137646356
  -OEChem-03242010103D

 63 66  0     0  0  0  0  0  0999 V2000
   -7.8953   -2.2509   -1.5767 O   0  0  0  0  0  0  0  0  0  0  0  0
    5.1219   -0.9708   -1.4349 O   0  0  0  0  0  0  0  0  0  0  0  0
   -3.0543    1.5963    0.4810 N   0  0  0  0  0  0  0  0  0  0  0  0
   -5.3687    0.2521   -0.6121 N   0  0  0  0  0  0  0  0  0  0  0  0
    2.0383    0.4377    0.7774 N   0  0  0  0  0  0  0  0  0  0  0  0
   -3.9006    0.7351    1.3160 C   0  0  0  0  0  0  0  0  0  0  0  0
   -3.8431    2.1954   -0.6024 C   0  0  0  0  0  0  0  0  0  0  0  0
   -4.5211    1.1115   -1.4475 C   0  0  0  0  0  0  0  0  0  0  0  0
   -4.5797   -0.3480    0.4708 C   0  0  0  0  0  0  0  0  0  0  0  0
   -2.4105    2.6310    1.2880 C   0  0  0  0  0  0  0  0  0  0  0  0
   -1.2066    2.0526    2.0308 C   0  0  0  0  0  0  0  0  0  0  0  0
   -0.1648    1.5038    1.0500 C   0  0  0  0  0  0  0  0  0  0  0  0
    1.0695    0.9452    1.7531 C   0  0  0  0  0  0  0  0  0  0  0  0
   -6.0143   -0.7819   -1.4184 C   0  0  0  0  0  0  0  0  0  0  0  0
    2.1305   -0.9583    0.5765 C   0  0  0  0  0  0  0  0  0  0  0  0
    2.8091    1.3667    0.0418 C   0  0  0  0  0  0  0  0  0  0  0  0
   -7.2939   -1.2613   -0.7521 C   0  0  0  0  0  0  0  0  0  0  0  0
    3.1752   -1.4779   -0.2126 C   0  0  0  0  0  0  0  0  0  0  0  0
    3.8709    0.9057   -0.7606 C   0  0  0  0  0  0  0  0  0  0  0  0
    1.2178   -1.8858    1.1118 C   0  0  0  0  0  0  0  0  0  0  0  0
    4.1373   -0.5474   -0.8432 C   0  0  0  0  0  0  0  0  0  0  0  0
    3.3238   -2.8555   -0.4280 C   0  0  0  0  0  0  0  0  0  0  0  0
    2.5717    2.7535    0.0449 C   0  0  0  0  0  0  0  0  0  0  0  0
    1.3594   -3.2611    0.8960 C   0  0  0  0  0  0  0  0  0  0  0  0
    2.4143   -3.7457    0.1321 C   0  0  0  0  0  0  0  0  0  0  0  0
    4.6785    1.7859   -1.4949 C   0  0  0  0  0  0  0  0  0  0  0  0
   -0.0265   -1.5052    1.8546 C   0  0  0  0  0  0  0  0  0  0  0  0
    3.3720    3.6355   -0.6898 C   0  0  0  0  0  0  0  0  0  0  0  0
    4.4275    3.1529   -1.4538 C   0  0  0  0  0  0  0  0  0  0  0  0
    2.5617   -5.2112   -0.0978 C   0  0  0  0  0  0  0  0  0  0  0  0
   -4.6670    1.3243    1.8380 H   0  0  0  0  0  0  0  0  0  0  0  0
   -3.3043    0.2270    2.0813 H   0  0  0  0  0  0  0  0  0  0  0  0
   -3.1885    2.7800   -1.2604 H   0  0  0  0  0  0  0  0  0  0  0  0
   -4.6013    2.8813   -0.2004 H   0  0  0  0  0  0  0  0  0  0  0  0
   -3.8164   -1.0292    0.0700 H   0  0  0  0  0  0  0  0  0  0  0  0
   -5.2214   -0.9356    1.1365 H   0  0  0  0  0  0  0  0  0  0  0  0
   -5.1316    1.6085   -2.2114 H   0  0  0  0  0  0  0  0  0  0  0  0
   -3.7591    0.5183   -1.9712 H   0  0  0  0  0  0  0  0  0  0  0  0
   -2.0423    3.4421    0.6456 H   0  0  0  0  0  0  0  0  0  0  0  0
   -3.1111    3.0923    1.9955 H   0  0  0  0  0  0  0  0  0  0  0  0
   -1.5074    1.2740    2.7396 H   0  0  0  0  0  0  0  0  0  0  0  0
   -0.7502    2.8528    2.6268 H   0  0  0  0  0  0  0  0  0  0  0  0
   -0.6043    0.7699    0.3694 H   0  0  0  0  0  0  0  0  0  0  0  0
    0.0828    2.3207    0.3685 H   0  0  0  0  0  0  0  0  0  0  0  0
    1.5419    1.8046    2.2558 H   0  0  0  0  0  0  0  0  0  0  0  0
    0.9165    0.3496    2.6444 H   0  0  0  0  0  0  0  0  0  0  0  0
   -5.3438   -1.6235   -1.6373 H   0  0  0  0  0  0  0  0  0  0  0  0
   -6.3007   -0.3806   -2.4005 H   0  0  0  0  0  0  0  0  0  0  0  0
   -8.0048   -0.4374   -0.6269 H   0  0  0  0  0  0  0  0  0  0  0  0
   -7.1037   -1.7145    0.2250 H   0  0  0  0  0  0  0  0  0  0  0  0
    4.1412   -3.2361   -1.0355 H   0  0  0  0  0  0  0  0  0  0  0  0
    1.8174    3.2263    0.6626 H   0  0  0  0  0  0  0  0  0  0  0  0
    0.6461   -3.9685    1.3139 H   0  0  0  0  0  0  0  0  0  0  0  0
    5.4993    1.4228   -2.1075 H   0  0  0  0  0  0  0  0  0  0  0  0
    0.1469   -1.2787    2.9088 H   0  0  0  0  0  0  0  0  0  0  0  0
   -0.6955   -0.8404    1.3295 H   0  0  0  0  0  0  0  0  0  0  0  0
   -0.6722   -2.3949    1.9344 H   0  0  0  0  0  0  0  0  0  0  0  0
    3.1767    4.7036   -0.6493 H   0  0  0  0  0  0  0  0  0  0  0  0
    5.0501    3.8393   -2.0197 H   0  0  0  0  0  0  0  0  0  0  0  0
   -8.7129   -2.5340   -1.1329 H   0  0  0  0  0  0  0  0  0  0  0  0
    1.5832   -5.6906   -0.2095 H   0  0  0  0  0  0  0  0  0  0  0  0
    3.1255   -5.4180   -1.0139 H   0  0  0  0  0  0  0  0  0  0  0  0
    3.0867   -5.6726    0.7445 H   0  0  0  0  0  0  0  0  0  0  0  0
  1 17  1  0  0  0  0
  1 60  1  0  0  0  0
  2 21  2  0  0  0  0
  3  6  1  0  0  0  0
  3  7  1  0  0  0  0
  3 10  1  0  0  0  0
  4  8  1  0  0  0  0
  4  9  1  0  0  0  0
  4 14  1  0  0  0  0
  5 13  1  0  0  0  0
  5 15  1  0  0  0  0
  5 16  1  0  0  0  0
  6  9  1  0  0  0  0
  6 31  1  0  0  0  0
  6 32  1  0  0  0  0
  7  8  1  0  0  0  0
  7 33  1  0  0  0  0
  7 34  1  0  0  0  0
  8 37  1  0  0  0  0
  8 38  1  0  0  0  0
  9 35  1  0  0  0  0
  9 36  1  0  0  0  0
 10 11  1  0  0  0  0
 10 39  1  0  0  0  0
 10 40  1  0  0  0  0
 11 12  1  0  0  0  0
 11 41  1  0  0  0  0
 11 42  1  0  0  0  0
 12 13  1  0  0  0  0
 12 43  1  0  0  0  0
 12 44  1  0  0  0  0
 13 45  1  0  0  0  0
 13 46  1  0  0  0  0
 14 17  1  0  0  0  0
 14 47  1  0  0  0  0
 14 48  1  0  0  0  0
 15 18  1  0  0  0  0
 15 20  2  0  0  0  0
 16 19  1  0  0  0  0
 16 23  2  0  0  0  0
 17 49  1  0  0  0  0
 17 50  1  0  0  0  0
 18 21  1  0  0  0  0
 18 22  2  0  0  0  0
 19 21  1  0  0  0  0
 19 26  2  0  0  0  0
 20 24  1  0  0  0  0
 20 27  1  0  0  0  0
 22 25  1  0  0  0  0
 22 51  1  0  0  0  0
 23 28  1  0  0  0  0
 23 52  1  0  0  0  0
 24 25  2  0  0  0  0
 24 53  1  0  0  0  0
 25 30  1  0  0  0  0
 26 29  1  0  0  0  0
 26 54  1  0  0  0  0
 27 55  1  0  0  0  0
 27 56  1  0  0  0  0
 27 57  1  0  0  0  0
 28 29  2  0  0  0  0
 28 58  1  0  0  0  0
 29 59  1  0  0  0  0
 30 61  1  0  0  0  0
 30 62  1  0  0  0  0
 30 63  1  0  0  0  0
M  END
> <PUBCHEM_COMPOUND_CID>
137646356

> <PUBCHEM_CONFORMER_RMSD>
1

> <PUBCHEM_CONFORMER_DIVERSEORDER>
1
10
9
30
43
8
36
3
33
26
44
20
27
38
31
42
29
45
35
28
12
34
39
6
37
40
32
23
16
18
2
41
46
15
24
21
5
7
25
17
4
19
11
13
14
22

> <PUBCHEM_MMFF94_PARTIAL_CHARGES>
35
1 -0.68
10 0.27
13 0.37
14 0.27
15 0.1
16 0.1
17 0.28
18 0.09
19 0.09
2 -0.57
20 -0.14
21 0.4
22 -0.15
23 -0.15
24 -0.15
25 -0.14
26 -0.15
27 0.14
28 -0.15
29 -0.15
3 -0.81
30 0.14
4 -0.81
5 -0.57
51 0.15
52 0.15
53 0.15
54 0.15
58 0.15
59 0.15
6 0.27
60 0.4
7 0.27
8 0.27
9 0.27

> <PUBCHEM_EFFECTIVE_ROTOR_COUNT>
8.2

> <PUBCHEM_PHARMACOPHORE_FEATURES>
10
1 1 acceptor
1 1 donor
1 2 acceptor
1 3 cation
1 4 cation
1 5 cation
6 15 18 20 22 24 25 rings
6 16 19 23 26 28 29 rings
6 3 4 6 7 8 9 rings
6 5 15 16 18 19 21 rings

> <PUBCHEM_HEAVY_ATOM_COUNT>
30

> <PUBCHEM_ATOM_DEF_STEREO_COUNT>
0

> <PUBCHEM_ATOM_UDEF_STEREO_COUNT>
0

> <PUBCHEM_BOND_DEF_STEREO_COUNT>
0

> <PUBCHEM_BOND_UDEF_STEREO_COUNT>
0

> <PUBCHEM_ISOTOPIC_ATOM_COUNT>
0

> <PUBCHEM_COMPONENT_COUNT>
1

> <PUBCHEM_CACTVS_TAUTO_COUNT>
-1

> <PUBCHEM_CONFORMER_ID>
0834511400000001

> <PUBCHEM_MMFF94_ENERGY>
106.5182

> <PUBCHEM_FEATURE_SELFOVERLAP>
50.793

> <PUBCHEM_SHAPE_FINGERPRINT>
10319926 262 13398640493814485333
10622 236 18126840500416162515
10693767 8 18127704742763437358
10928967 22 17774987004414152135
10940486 97 17693102859709434032
11069576 57 18340763750142437047
11297750 10 11894092880863803832
11315621 136 18411132498678254675
11399510 152 10951181507687011005
11607047 403 18200291309220593610
13150687 139 18189903187696684468
13383661 66 17333932449170360555
1361 2 18188491401338510053
13692114 37 18196925794200990168
15250474 111 18199751354099912209
15537594 2 18131077034950866353
15705408 1 18119269284879728126
16989713 51 16898772689037200014
17134984 74 18339356500192360095
17138139 8 17988640860584946124
17909252 39 18131344177099841315
19319366 153 18342449395930653078
20028762 73 18341616980388307710
20775438 99 17698714036939808916
21054139 6 18342179934383313016
21344244 246 18410013204948181838
21599406 157 18115285844963709935
235170 7 17894346670799946965
23522609 53 17986701271341693945
23559900 14 18196074557315719945
238 59 18334586711239963024
24771293 8 18196094340510000914
3103668 31 17544768184288315406
312425 83 18042118752887703477
3552219 110 11743579699683008640
404807 78 17826796138391876539
4280585 95 17686614645999834042
439807 62 18342173350546614623
46194498 28 18259978254594174439
484989 97 18192732217960836610
5912855 24 18343310236959520345
6058803 2 18127425452991449089
6669772 16 17843110661385337744

> <PUBCHEM_SHAPE_MULTIPOLES>
590.7
14.72
5.32
1.76
31.11
4.23
0.26
2.35
-10.51
-6.58
-0.39
0.9
-0.49
-2.61

> <PUBCHEM_SHAPE_SELFOVERLAP>
1258.199

> <PUBCHEM_SHAPE_VOLUME>
329.2

> <PUBCHEM_COORDINATE_TYPE>
2
5
10

$$$$