137649928
  -OEChem-03242010103D

 52 55  0     1  0  0  0  0  0999 V2000
   -2.9061   -0.5527   -2.3885 O   0  0  0  0  0  0  0  0  0  0  0  0
   -2.4790   -2.4078   -1.0797 O   0  0  0  0  0  0  0  0  0  0  0  0
    0.2552    2.9303   -1.1941 O   0  0  0  0  0  0  0  0  0  0  0  0
   -1.7350   -1.7006    1.3289 N   0  0  2  0  0  0  0  0  0  0  0  0
    2.6595    1.7163   -0.2909 N   0  0  0  0  0  0  0  0  0  0  0  0
   -2.1076    0.9227   -0.0436 C   0  0  1  0  0  0  0  0  0  0  0  0
   -1.3967   -0.2990   -0.6086 C   0  0  1  0  0  0  0  0  0  0  0  0
   -3.1578    0.4149    1.0015 C   0  0  1  0  0  0  0  0  0  0  0  0
   -0.7028   -0.9456    0.6075 C   0  0  2  0  0  0  0  0  0  0  0  0
   -2.6270   -0.6910    1.9731 C   0  0  0  0  0  0  0  0  0  0  0  0
   -1.0373    1.9066    0.5110 C   0  0  0  0  0  0  0  0  0  0  0  0
    0.6712   -1.4294    0.1793 C   0  0  0  0  0  0  0  0  0  0  0  0
   -3.7988    1.5596    1.7862 C   0  0  0  0  0  0  0  0  0  0  0  0
    1.6345   -0.2391    0.0247 C   0  0  0  0  0  0  0  0  0  0  0  0
   -2.3127   -1.2295   -1.3644 C   0  0  0  0  0  0  0  0  0  0  0  0
    0.2302    2.0253   -0.3531 C   0  0  0  0  0  0  0  0  0  0  0  0
    1.4053    1.1412   -0.1760 C   0  0  0  0  0  0  0  0  0  0  0  0
   -1.1870   -2.6079    2.3316 C   0  0  0  0  0  0  0  0  0  0  0  0
   -4.4352    2.5757    0.8586 C   0  0  0  0  0  0  0  0  0  0  0  0
    3.0655   -0.4330    0.0477 C   0  0  0  0  0  0  0  0  0  0  0  0
    3.6671    0.8029   -0.1461 C   0  0  0  0  0  0  0  0  0  0  0  0
    3.8990   -1.5629    0.2086 C   0  0  0  0  0  0  0  0  0  0  0  0
    5.0553    0.9806   -0.1820 C   0  0  0  0  0  0  0  0  0  0  0  0
   -3.8069   -1.3207   -3.1927 C   0  0  0  0  0  0  0  0  0  0  0  0
    5.2895   -1.4064    0.1764 C   0  0  0  0  0  0  0  0  0  0  0  0
    5.8577   -0.1506   -0.0155 C   0  0  0  0  0  0  0  0  0  0  0  0
   -2.6348    1.4356   -0.8580 H   0  0  0  0  0  0  0  0  0  0  0  0
   -0.6741   -0.0031   -1.3780 H   0  0  0  0  0  0  0  0  0  0  0  0
   -3.9613   -0.0649    0.4223 H   0  0  0  0  0  0  0  0  0  0  0  0
   -0.3987   -0.2146    1.3618 H   0  0  0  0  0  0  0  0  0  0  0  0
   -2.1000   -0.2069    2.8075 H   0  0  0  0  0  0  0  0  0  0  0  0
   -3.4911   -1.2098    2.4075 H   0  0  0  0  0  0  0  0  0  0  0  0
   -0.7432    1.7018    1.5458 H   0  0  0  0  0  0  0  0  0  0  0  0
   -1.4734    2.9125    0.5589 H   0  0  0  0  0  0  0  0  0  0  0  0
    0.6323   -2.0006   -0.7555 H   0  0  0  0  0  0  0  0  0  0  0  0
    1.0886   -2.0913    0.9467 H   0  0  0  0  0  0  0  0  0  0  0  0
   -3.0666    2.0564    2.4325 H   0  0  0  0  0  0  0  0  0  0  0  0
   -4.5743    1.1536    2.4473 H   0  0  0  0  0  0  0  0  0  0  0  0
   -0.6047   -3.4026    1.8536 H   0  0  0  0  0  0  0  0  0  0  0  0
   -1.9946   -3.1060    2.8796 H   0  0  0  0  0  0  0  0  0  0  0  0
   -0.5474   -2.0925    3.0569 H   0  0  0  0  0  0  0  0  0  0  0  0
   -3.7024    3.1396    0.2771 H   0  0  0  0  0  0  0  0  0  0  0  0
   -5.0034    3.3049    1.4462 H   0  0  0  0  0  0  0  0  0  0  0  0
   -5.1333    2.0970    0.1639 H   0  0  0  0  0  0  0  0  0  0  0  0
    2.8095    2.7015   -0.4566 H   0  0  0  0  0  0  0  0  0  0  0  0
    3.4740   -2.5517    0.3569 H   0  0  0  0  0  0  0  0  0  0  0  0
    5.4964    1.9597   -0.3362 H   0  0  0  0  0  0  0  0  0  0  0  0
   -4.2097   -0.6670   -3.9708 H   0  0  0  0  0  0  0  0  0  0  0  0
   -4.6355   -1.6923   -2.5823 H   0  0  0  0  0  0  0  0  0  0  0  0
   -3.2757   -2.1496   -3.6701 H   0  0  0  0  0  0  0  0  0  0  0  0
    5.9299   -2.2753    0.3016 H   0  0  0  0  0  0  0  0  0  0  0  0
    6.9394   -0.0475   -0.0386 H   0  0  0  0  0  0  0  0  0  0  0  0
  1 15  1  0  0  0  0
  1 24  1  0  0  0  0
  2 15  2  0  0  0  0
  3 16  2  0  0  0  0
  4  9  1  0  0  0  0
  4 10  1  0  0  0  0
  4 18  1  0  0  0  0
  5 17  1  0  0  0  0
  5 21  1  0  0  0  0
  5 45  1  0  0  0  0
  6  7  1  0  0  0  0
  6  8  1  0  0  0  0
  6 11  1  0  0  0  0
  6 27  1  0  0  0  0
  7  9  1  0  0  0  0
  7 15  1  0  0  0  0
  7 28  1  0  0  0  0
  8 10  1  0  0  0  0
  8 13  1  0  0  0  0
  8 29  1  0  0  0  0
  9 12  1  0  0  0  0
  9 30  1  0  0  0  0
 10 31  1  0  0  0  0
 10 32  1  0  0  0  0
 11 16  1  0  0  0  0
 11 33  1  0  0  0  0
 11 34  1  0  0  0  0
 12 14  1  0  0  0  0
 12 35  1  0  0  0  0
 12 36  1  0  0  0  0
 13 19  1  0  0  0  0
 13 37  1  0  0  0  0
 13 38  1  0  0  0  0
 14 17  2  0  0  0  0
 14 20  1  0  0  0  0
 16 17  1  0  0  0  0
 18 39  1  0  0  0  0
 18 40  1  0  0  0  0
 18 41  1  0  0  0  0
 19 42  1  0  0  0  0
 19 43  1  0  0  0  0
 19 44  1  0  0  0  0
 20 21  1  0  0  0  0
 20 22  2  0  0  0  0
 21 23  2  0  0  0  0
 22 25  1  0  0  0  0
 22 46  1  0  0  0  0
 23 26  1  0  0  0  0
 23 47  1  0  0  0  0
 24 48  1  0  0  0  0
 24 49  1  0  0  0  0
 24 50  1  0  0  0  0
 25 26  2  0  0  0  0
 25 51  1  0  0  0  0
 26 52  1  0  0  0  0
M  END
> <PUBCHEM_COMPOUND_CID>
137649928

> <PUBCHEM_CONFORMER_RMSD>
0.8

> <PUBCHEM_CONFORMER_DIVERSEORDER>
1
3
4
2

> <PUBCHEM_MMFF94_PARTIAL_CHARGES>
26
1 -0.43
10 0.27
11 0.06
12 0.18
14 -0.18
15 0.66
16 0.59
17 -0.24
18 0.27
2 -0.57
21 -0.15
22 -0.15
23 -0.15
24 0.28
25 -0.15
26 -0.15
3 -0.57
4 -0.81
45 0.27
46 0.15
47 0.15
5 0.03
51 0.15
52 0.15
7 0.06
9 0.27

> <PUBCHEM_EFFECTIVE_ROTOR_COUNT>
4.2

> <PUBCHEM_PHARMACOPHORE_FEATURES>
9
1 19 hydrophobe
1 2 acceptor
1 3 acceptor
1 4 cation
1 5 cation
1 5 donor
5 5 14 17 20 21 rings
6 20 21 22 23 25 26 rings
6 4 6 7 8 9 10 rings

> <PUBCHEM_HEAVY_ATOM_COUNT>
26

> <PUBCHEM_ATOM_DEF_STEREO_COUNT>
4

> <PUBCHEM_ATOM_UDEF_STEREO_COUNT>
0

> <PUBCHEM_BOND_DEF_STEREO_COUNT>
0

> <PUBCHEM_BOND_UDEF_STEREO_COUNT>
0

> <PUBCHEM_ISOTOPIC_ATOM_COUNT>
0

> <PUBCHEM_COMPONENT_COUNT>
1

> <PUBCHEM_CACTVS_TAUTO_COUNT>
-1

> <PUBCHEM_CONFORMER_ID>
08345F0800000001

> <PUBCHEM_MMFF94_ENERGY>
94.7909

> <PUBCHEM_FEATURE_SELFOVERLAP>
45.757

> <PUBCHEM_SHAPE_FINGERPRINT>
10006869 2 17758113701132025369
11135926 11 18040153990718984306
11578080 2 17202748419057038033
12236239 1 18273213097274146125
12553582 1 18187078430507448600
12633257 1 17969245432631970825
13004483 165 17058632183346537861
13140716 1 18335431183462175424
13224815 77 18342458162433293698
14068700 675 17273676840607400023
14790565 3 18116446842563306596
15131766 46 16518814863299168604
15163728 17 16197642870024326441
15196674 1 18335149678283543640
15238133 3 17970089788690008492
15361156 5 18341066125120593628
15420108 30 17768810871497244945
15880784 105 17489583494232346282
17349148 13 18333724720172963490
1813 80 16588037813850543036
19141452 34 18272091556843556988
200 152 18200584908135684158
20775438 99 15684148245198835511
21033648 29 17240750800830064092
21403212 168 18192159200778283641
21421861 104 17604148109121407514
23402539 116 18410291398147449960
23559900 14 18187079607708646352
23728640 28 18131075935038240027
335352 9 18261965029034651204
34934 24 18337113341526015305
469060 322 11455882585926599325
5104073 3 18334577975782892064
5924683 9 17703782643619394884
59755656 520 17967533450094090339
9709674 26 18337113372234539678

> <PUBCHEM_SHAPE_MULTIPOLES>
507.5
9.9
2.78
2.01
12.03
0.51
-0.86
0.59
-0.16
-1.81
0.18
-3.76
-1.32
-1.76

> <PUBCHEM_SHAPE_SELFOVERLAP>
1097.043

> <PUBCHEM_SHAPE_VOLUME>
275.9

> <PUBCHEM_COORDINATE_TYPE>
2
5
10

$$$$