137654281
  -OEChem-03242010103D

 67 71  0     1  0  0  0  0  0999 V2000
    3.8895   -1.7402    1.0057 O   0  0  0  0  0  0  0  0  0  0  0  0
    4.3514    0.3371    1.9048 O   0  0  0  0  0  0  0  0  0  0  0  0
   -0.7080    1.6101   -1.1467 O   0  0  0  0  0  0  0  0  0  0  0  0
   -3.4967   -1.1810    1.7581 O   0  0  0  0  0  0  0  0  0  0  0  0
    3.5526    0.3720   -1.4144 N   0  0  2  0  0  0  0  0  0  0  0  0
   -1.8008   -1.1877    0.2487 N   0  0  0  0  0  0  0  0  0  0  0  0
    1.9196    1.4079    0.9601 C   0  0  1  0  0  0  0  0  0  0  0  0
    2.3188   -0.0323    0.6514 C   0  0  1  0  0  0  0  0  0  0  0  0
    2.5608    2.3799   -0.0922 C   0  0  2  0  0  0  0  0  0  0  0  0
    2.2837   -0.1494   -0.8935 C   0  0  2  0  0  0  0  0  0  0  0  0
    3.7751    1.7448   -0.8613 C   0  0  0  0  0  0  0  0  0  0  0  0
    0.3606    1.4712    1.0021 C   0  0  0  0  0  0  0  0  0  0  0  0
    1.6346   -1.4724   -1.2985 C   0  0  0  0  0  0  0  0  0  0  0  0
    2.9813    3.6930    0.5710 C   0  0  0  0  0  0  0  0  0  0  0  0
    0.2077   -1.5826   -0.7350 C   0  0  0  0  0  0  0  0  0  0  0  0
    3.6372   -0.4264    1.2690 C   0  0  0  0  0  0  0  0  0  0  0  0
   -0.3862    0.8756   -0.2117 C   0  0  0  0  0  0  0  0  0  0  0  0
   -0.6430   -0.5742   -0.2449 C   0  0  0  0  0  0  0  0  0  0  0  0
    3.6131    0.3655   -2.8723 C   0  0  0  0  0  0  0  0  0  0  0  0
   -0.4735   -2.8248   -0.5789 C   0  0  0  0  0  0  0  0  0  0  0  0
    3.5637    4.6588   -0.4413 C   0  0  0  0  0  0  0  0  0  0  0  0
   -1.7047   -2.5665    0.0256 C   0  0  0  0  0  0  0  0  0  0  0  0
   -0.1273   -4.1577   -0.9011 C   0  0  0  0  0  0  0  0  0  0  0  0
   -2.8857   -0.5493    0.9004 C   0  0  0  0  0  0  0  0  0  0  0  0
   -2.6087   -3.6184    0.2848 C   0  0  0  0  0  0  0  0  0  0  0  0
   -1.0183   -5.1970   -0.6310 C   0  0  0  0  0  0  0  0  0  0  0  0
    5.1168   -2.2491    1.5373 C   0  0  0  0  0  0  0  0  0  0  0  0
   -2.2466   -4.9271   -0.0478 C   0  0  0  0  0  0  0  0  0  0  0  0
   -3.3644    0.8141    0.6497 C   0  0  0  0  0  0  0  0  0  0  0  0
   -3.8164    1.1724   -0.6203 C   0  0  0  0  0  0  0  0  0  0  0  0
   -3.3670    1.7529    1.6816 C   0  0  0  0  0  0  0  0  0  0  0  0
   -4.2710    2.4694   -0.8587 C   0  0  0  0  0  0  0  0  0  0  0  0
   -3.8214    3.0500    1.4431 C   0  0  0  0  0  0  0  0  0  0  0  0
   -4.2737    3.4082    0.1730 C   0  0  0  0  0  0  0  0  0  0  0  0
   -4.7532    2.8532   -2.2167 C   0  0  0  0  0  0  0  0  0  0  0  0
    2.2659    1.6877    1.9635 H   0  0  0  0  0  0  0  0  0  0  0  0
    1.6130   -0.6979    1.1632 H   0  0  0  0  0  0  0  0  0  0  0  0
    1.8020    2.6345   -0.8449 H   0  0  0  0  0  0  0  0  0  0  0  0
    1.5723    0.5513   -1.3342 H   0  0  0  0  0  0  0  0  0  0  0  0
    4.0650    2.4137   -1.6804 H   0  0  0  0  0  0  0  0  0  0  0  0
    4.6501    1.7016   -0.2028 H   0  0  0  0  0  0  0  0  0  0  0  0
    0.0377    2.5137    1.1116 H   0  0  0  0  0  0  0  0  0  0  0  0
    0.0004    0.9490    1.8981 H   0  0  0  0  0  0  0  0  0  0  0  0
    2.2397   -2.3179   -0.9543 H   0  0  0  0  0  0  0  0  0  0  0  0
    1.5597   -1.5483   -2.3899 H   0  0  0  0  0  0  0  0  0  0  0  0
    2.1078    4.1566    1.0448 H   0  0  0  0  0  0  0  0  0  0  0  0
    3.7172    3.5102    1.3630 H   0  0  0  0  0  0  0  0  0  0  0  0
    2.8226    0.9756   -3.3237 H   0  0  0  0  0  0  0  0  0  0  0  0
    4.5815    0.7455   -3.2171 H   0  0  0  0  0  0  0  0  0  0  0  0
    3.5315   -0.6548   -3.2608 H   0  0  0  0  0  0  0  0  0  0  0  0
    4.5607    4.3554   -0.7739 H   0  0  0  0  0  0  0  0  0  0  0  0
    3.6733    5.6484    0.0156 H   0  0  0  0  0  0  0  0  0  0  0  0
    2.9152    4.7686   -1.3164 H   0  0  0  0  0  0  0  0  0  0  0  0
    0.8293   -4.3825   -1.3657 H   0  0  0  0  0  0  0  0  0  0  0  0
   -3.5807   -3.4337    0.7308 H   0  0  0  0  0  0  0  0  0  0  0  0
   -0.7490   -6.2184   -0.8839 H   0  0  0  0  0  0  0  0  0  0  0  0
    5.1973   -3.3028    1.2573 H   0  0  0  0  0  0  0  0  0  0  0  0
    5.1164   -2.1745    2.6289 H   0  0  0  0  0  0  0  0  0  0  0  0
    5.9667   -1.7067    1.1124 H   0  0  0  0  0  0  0  0  0  0  0  0
   -2.9389   -5.7406    0.1526 H   0  0  0  0  0  0  0  0  0  0  0  0
   -3.8147    0.4409   -1.4254 H   0  0  0  0  0  0  0  0  0  0  0  0
   -3.0135    1.4873    2.6745 H   0  0  0  0  0  0  0  0  0  0  0  0
   -3.8215    3.7815    2.2459 H   0  0  0  0  0  0  0  0  0  0  0  0
   -4.6229    4.4226   -0.0004 H   0  0  0  0  0  0  0  0  0  0  0  0
   -3.9126    3.1877   -2.8327 H   0  0  0  0  0  0  0  0  0  0  0  0
   -5.2402    2.0077   -2.7146 H   0  0  0  0  0  0  0  0  0  0  0  0
   -5.4908    3.6611   -2.1629 H   0  0  0  0  0  0  0  0  0  0  0  0
  1 16  1  0  0  0  0
  1 27  1  0  0  0  0
  2 16  2  0  0  0  0
  3 17  2  0  0  0  0
  4 24  2  0  0  0  0
  5 10  1  0  0  0  0
  5 11  1  0  0  0  0
  5 19  1  0  0  0  0
  6 18  1  0  0  0  0
  6 22  1  0  0  0  0
  6 24  1  0  0  0  0
  7  8  1  0  0  0  0
  7  9  1  0  0  0  0
  7 12  1  0  0  0  0
  7 36  1  0  0  0  0
  8 10  1  0  0  0  0
  8 16  1  0  0  0  0
  8 37  1  0  0  0  0
  9 11  1  0  0  0  0
  9 14  1  0  0  0  0
  9 38  1  0  0  0  0
 10 13  1  0  0  0  0
 10 39  1  0  0  0  0
 11 40  1  0  0  0  0
 11 41  1  0  0  0  0
 12 17  1  0  0  0  0
 12 42  1  0  0  0  0
 12 43  1  0  0  0  0
 13 15  1  0  0  0  0
 13 44  1  0  0  0  0
 13 45  1  0  0  0  0
 14 21  1  0  0  0  0
 14 46  1  0  0  0  0
 14 47  1  0  0  0  0
 15 18  2  0  0  0  0
 15 20  1  0  0  0  0
 17 18  1  0  0  0  0
 19 48  1  0  0  0  0
 19 49  1  0  0  0  0
 19 50  1  0  0  0  0
 20 22  1  0  0  0  0
 20 23  2  0  0  0  0
 21 51  1  0  0  0  0
 21 52  1  0  0  0  0
 21 53  1  0  0  0  0
 22 25  2  0  0  0  0
 23 26  1  0  0  0  0
 23 54  1  0  0  0  0
 24 29  1  0  0  0  0
 25 28  1  0  0  0  0
 25 55  1  0  0  0  0
 26 28  2  0  0  0  0
 26 56  1  0  0  0  0
 27 57  1  0  0  0  0
 27 58  1  0  0  0  0
 27 59  1  0  0  0  0
 28 60  1  0  0  0  0
 29 30  1  0  0  0  0
 29 31  2  0  0  0  0
 30 32  2  0  0  0  0
 30 61  1  0  0  0  0
 31 33  1  0  0  0  0
 31 62  1  0  0  0  0
 32 34  1  0  0  0  0
 32 35  1  0  0  0  0
 33 34  2  0  0  0  0
 33 63  1  0  0  0  0
 34 64  1  0  0  0  0
 35 65  1  0  0  0  0
 35 66  1  0  0  0  0
 35 67  1  0  0  0  0
M  END
> <PUBCHEM_COMPOUND_CID>
137654281

> <PUBCHEM_CONFORMER_RMSD>
1

> <PUBCHEM_CONFORMER_DIVERSEORDER>
1
21
11
15
7
20
28
18
26
22
19
3
14
16
2
24
10
8
9
25
5
17
27
6
4
29
12
23
13

> <PUBCHEM_MMFF94_PARTIAL_CHARGES>
38
1 -0.43
10 0.27
11 0.27
12 0.06
13 0.18
15 -0.18
16 0.66
17 0.59
18 -0.24
19 0.27
2 -0.57
22 -0.15
23 -0.15
24 0.49
25 -0.15
26 -0.15
27 0.28
28 -0.15
29 0.09
3 -0.57
30 -0.15
31 -0.15
32 -0.14
33 -0.15
34 -0.15
35 0.14
4 -0.57
5 -0.81
54 0.15
55 0.15
56 0.15
6 0.29
60 0.15
61 0.15
62 0.15
63 0.15
64 0.15
8 0.06

> <PUBCHEM_EFFECTIVE_ROTOR_COUNT>
6.2

> <PUBCHEM_PHARMACOPHORE_FEATURES>
9
1 2 acceptor
1 21 hydrophobe
1 3 acceptor
1 4 acceptor
1 5 cation
5 6 15 18 20 22 rings
6 20 22 23 25 26 28 rings
6 29 30 31 32 33 34 rings
6 5 7 8 9 10 11 rings

> <PUBCHEM_HEAVY_ATOM_COUNT>
35

> <PUBCHEM_ATOM_DEF_STEREO_COUNT>
4

> <PUBCHEM_ATOM_UDEF_STEREO_COUNT>
0

> <PUBCHEM_BOND_DEF_STEREO_COUNT>
0

> <PUBCHEM_BOND_UDEF_STEREO_COUNT>
0

> <PUBCHEM_ISOTOPIC_ATOM_COUNT>
0

> <PUBCHEM_COMPONENT_COUNT>
1

> <PUBCHEM_CACTVS_TAUTO_COUNT>
-1

> <PUBCHEM_CONFORMER_ID>
0834700900000001

> <PUBCHEM_MMFF94_ENERGY>
134.8467

> <PUBCHEM_FEATURE_SELFOVERLAP>
45.756

> <PUBCHEM_SHAPE_FINGERPRINT>
11421498 54 17615119319015020570
12160290 23 17987801954930876247
12403260 363 18341601621226424307
12422481 6 17751922419537228878
12788726 201 18120094141612428179
13140716 1 18409453561671218377
13583140 156 18040721393403342745
13590594 115 16681766459949434025
13692114 37 18410282598408449903
14466204 15 18123462791625561504
15961568 22 17332816448571921292
17974551 9 17530975652335538154
19315092 285 16887185421069029538
21033648 29 18271255945107533249
22907989 373 18195529427075913517
23559900 14 17977116664434621863
283562 15 17617095149953264648
3380486 77 18269273461550433488
340366 18 18334573495678093490
3886686 26 18268971173199188690
4017518 198 17987223440391066750
460360 51 18408038532939295192
6371009 1 18340474591801192129
7097593 13 18335127696989569538
9981440 41 18339919300012006123

> <PUBCHEM_SHAPE_MULTIPOLES>
686.84
9.39
6.67
1.82
1.05
4.78
0.48
-7.23
-0.95
-3.31
0.83
0.68
-0.59
-0.29

> <PUBCHEM_SHAPE_SELFOVERLAP>
1497.67

> <PUBCHEM_SHAPE_VOLUME>
369

> <PUBCHEM_COORDINATE_TYPE>
2
5
10

$$$$