24894134
  -OEChem-03232009313D

 47 51  0     0  0  0  0  0  0999 V2000
    7.9249    3.6274    0.4795 Cl  0  0  0  0  0  0  0  0  0  0  0  0
   -4.3137    2.0462    1.5744 Cl  0  0  0  0  0  0  0  0  0  0  0  0
   -8.5612    2.4547   -1.1244 F   0  0  0  0  0  0  0  0  0  0  0  0
   -3.0871   -2.3972    1.0115 O   0  0  0  0  0  0  0  0  0  0  0  0
    1.9865   -1.0613    0.0375 N   0  0  0  0  0  0  0  0  0  0  0  0
   -2.9473   -0.3888    0.0297 N   0  0  0  0  0  0  0  0  0  0  0  0
   -4.4034   -1.9385    0.8735 N   0  0  0  0  0  0  0  0  0  0  0  0
    5.5285   -1.5886   -0.8319 N   0  0  0  0  0  0  0  0  0  0  0  0
   -0.7988   -1.6839    0.5193 C   0  0  0  0  0  0  0  0  0  0  0  0
   -0.1935   -1.7350   -0.8913 C   0  0  0  0  0  0  0  0  0  0  0  0
   -0.0482   -0.6420    1.3626 C   0  0  0  0  0  0  0  0  0  0  0  0
    1.3089   -2.0176   -0.8449 C   0  0  0  0  0  0  0  0  0  0  0  0
    1.4510   -0.9372    1.4004 C   0  0  0  0  0  0  0  0  0  0  0  0
   -2.2934   -1.4253    0.4900 C   0  0  0  0  0  0  0  0  0  0  0  0
    3.3510   -0.8054   -0.1436 C   0  0  0  0  0  0  0  0  0  0  0  0
    3.8977    0.4302    0.1714 C   0  0  0  0  0  0  0  0  0  0  0  0
    4.2025   -1.7726   -0.6379 C   0  0  0  0  0  0  0  0  0  0  0  0
    5.2671    0.6632   -0.0147 C   0  0  0  0  0  0  0  0  0  0  0  0
   -4.2380   -0.7494    0.2863 C   0  0  0  0  0  0  0  0  0  0  0  0
    6.0563   -0.3884   -0.5254 C   0  0  0  0  0  0  0  0  0  0  0  0
   -5.3404    0.1017   -0.0569 C   0  0  0  0  0  0  0  0  0  0  0  0
    5.8513    1.9032    0.2948 C   0  0  0  0  0  0  0  0  0  0  0  0
    7.4166   -0.1567   -0.7096 C   0  0  0  0  0  0  0  0  0  0  0  0
    7.2144    2.1075    0.1005 C   0  0  0  0  0  0  0  0  0  0  0  0
    7.9976    1.0761   -0.4025 C   0  0  0  0  0  0  0  0  0  0  0  0
   -5.4703    1.3867    0.4700 C   0  0  0  0  0  0  0  0  0  0  0  0
   -6.2983   -0.3884   -0.9444 C   0  0  0  0  0  0  0  0  0  0  0  0
   -6.5581    2.1816    0.1093 C   0  0  0  0  0  0  0  0  0  0  0  0
   -7.3863    0.4065   -1.3050 C   0  0  0  0  0  0  0  0  0  0  0  0
   -7.5162    1.6915   -0.7780 C   0  0  0  0  0  0  0  0  0  0  0  0
   -0.6475   -2.6676    0.9864 H   0  0  0  0  0  0  0  0  0  0  0  0
   -0.3673   -0.7790   -1.4035 H   0  0  0  0  0  0  0  0  0  0  0  0
   -0.6920   -2.5066   -1.4908 H   0  0  0  0  0  0  0  0  0  0  0  0
   -0.4439   -0.6267    2.3855 H   0  0  0  0  0  0  0  0  0  0  0  0
   -0.2121    0.3612    0.9466 H   0  0  0  0  0  0  0  0  0  0  0  0
    1.4832   -3.0411   -0.4902 H   0  0  0  0  0  0  0  0  0  0  0  0
    1.6952   -1.9450   -1.8693 H   0  0  0  0  0  0  0  0  0  0  0  0
    1.9409   -0.1325    1.9605 H   0  0  0  0  0  0  0  0  0  0  0  0
    1.6380   -1.8694    1.9483 H   0  0  0  0  0  0  0  0  0  0  0  0
    3.2619    1.2274    0.5522 H   0  0  0  0  0  0  0  0  0  0  0  0
    3.8622   -2.7704   -0.8962 H   0  0  0  0  0  0  0  0  0  0  0  0
    5.2344    2.7091    0.6886 H   0  0  0  0  0  0  0  0  0  0  0  0
    8.0519   -0.9487   -1.1021 H   0  0  0  0  0  0  0  0  0  0  0  0
    9.0642    1.2126   -0.5626 H   0  0  0  0  0  0  0  0  0  0  0  0
   -6.2150   -1.3858   -1.3705 H   0  0  0  0  0  0  0  0  0  0  0  0
   -6.6752    3.1852    0.5102 H   0  0  0  0  0  0  0  0  0  0  0  0
   -8.1321    0.0259   -1.9966 H   0  0  0  0  0  0  0  0  0  0  0  0
  1 24  1  0  0  0  0
  2 26  1  0  0  0  0
  3 30  1  0  0  0  0
  4  7  1  0  0  0  0
  4 14  1  0  0  0  0
  5 12  1  0  0  0  0
  5 13  1  0  0  0  0
  5 15  1  0  0  0  0
  6 14  2  0  0  0  0
  6 19  1  0  0  0  0
  7 19  2  0  0  0  0
  8 17  1  0  0  0  0
  8 20  2  0  0  0  0
  9 10  1  0  0  0  0
  9 11  1  0  0  0  0
  9 14  1  0  0  0  0
  9 31  1  0  0  0  0
 10 12  1  0  0  0  0
 10 32  1  0  0  0  0
 10 33  1  0  0  0  0
 11 13  1  0  0  0  0
 11 34  1  0  0  0  0
 11 35  1  0  0  0  0
 12 36  1  0  0  0  0
 12 37  1  0  0  0  0
 13 38  1  0  0  0  0
 13 39  1  0  0  0  0
 15 16  1  0  0  0  0
 15 17  2  0  0  0  0
 16 18  2  0  0  0  0
 16 40  1  0  0  0  0
 17 41  1  0  0  0  0
 18 20  1  0  0  0  0
 18 22  1  0  0  0  0
 19 21  1  0  0  0  0
 20 23  1  0  0  0  0
 21 26  2  0  0  0  0
 21 27  1  0  0  0  0
 22 24  2  0  0  0  0
 22 42  1  0  0  0  0
 23 25  2  0  0  0  0
 23 43  1  0  0  0  0
 24 25  1  0  0  0  0
 25 44  1  0  0  0  0
 26 28  1  0  0  0  0
 27 29  2  0  0  0  0
 27 45  1  0  0  0  0
 28 30  2  0  0  0  0
 28 46  1  0  0  0  0
 29 30  1  0  0  0  0
 29 47  1  0  0  0  0
M  END
> <PUBCHEM_COMPOUND_CID>
24894134

> <PUBCHEM_CONFORMER_RMSD>
0.8

> <PUBCHEM_CONFORMER_DIVERSEORDER>
1
187
50
136
83
157
199
180
60
215
5
182
34
141
227
78
163
58
103
113
154
15
145
117
220
138
169
22
126
160
85
35
109
127
89
224
122
159
175
43
226
128
120
79
115
45
176
36
71
203
151
212
186
149
210
64
108
20
170
75
206
95
107
200
207
125
66
31
8
222
173
118
153
221
97
193
181
195
56
28
80
218
70
74
3
216
67
55
204
112
202
168
96
93
101
25
33
142
68
140
131
39
94
59
167
99
105
121
190
171
217
18
62
104
139
166
133
81
184
130
150
185
2
135
73
47
86
16
211
14
194
155
11
10
41
38
69
188
174
98
52
152
172
201
4
205
116
40
161
214
76
179
223
87
208
219
164
30
24
44
61
26
102
49
124
137
9
213
119
54
48
7
191
123
156
21
32
42
162
6
72
177
144
148
13
53
134
12
23
110
183
147
197
37
165
57
192
19
111
17
29
77
91
51
63
178
198
106
88
82
143
65
158
46
209
84
146
90
92
225
132
129
114
27
189
100
196

> <PUBCHEM_MMFF94_PARTIAL_CHARGES>
35
1 -0.18
12 0.37
13 0.37
14 0.3
15 0.1
16 -0.15
17 0.16
19 0.46
2 -0.18
20 0.31
21 0.05
22 -0.15
23 -0.15
24 0.18
25 -0.15
26 0.18
27 -0.15
28 -0.15
29 -0.15
3 -0.19
30 0.19
4 -0.02
40 0.15
41 0.15
42 0.15
43 0.15
44 0.15
45 0.15
46 0.15
47 0.15
5 -0.84
6 -0.57
7 -0.41
8 -0.62
9 0.18

> <PUBCHEM_EFFECTIVE_ROTOR_COUNT>
4.2

> <PUBCHEM_PHARMACOPHORE_FEATURES>
8
1 5 cation
1 8 acceptor
3 6 7 19 cation
5 4 6 7 14 19 rings
6 18 20 22 23 24 25 rings
6 21 26 27 28 29 30 rings
6 5 9 10 11 12 13 rings
6 8 15 16 17 18 20 rings

> <PUBCHEM_HEAVY_ATOM_COUNT>
30

> <PUBCHEM_ATOM_DEF_STEREO_COUNT>
0

> <PUBCHEM_ATOM_UDEF_STEREO_COUNT>
0

> <PUBCHEM_BOND_DEF_STEREO_COUNT>
0

> <PUBCHEM_BOND_UDEF_STEREO_COUNT>
0

> <PUBCHEM_ISOTOPIC_ATOM_COUNT>
0

> <PUBCHEM_COMPONENT_COUNT>
1

> <PUBCHEM_CACTVS_TAUTO_COUNT>
1

> <PUBCHEM_CONFORMER_ID>
017BDAB600000001

> <PUBCHEM_MMFF94_ENERGY>
82.2801

> <PUBCHEM_FEATURE_SELFOVERLAP>
40.63

> <PUBCHEM_SHAPE_FINGERPRINT>
10 15 16877941624876629551
10066227 112 18412546513486061690
10554248 39 17632307726863368222
10669705 176 18343303673426221167
10740516 88 10015588358276522436
10835480 77 18412266146985570290
11386260 185 17846508032947221892
11409948 41 16701474364796966158
11409948 8 18188223057368624769
11607047 74 11814452040769961771
11991303 11 16486966345095544015
12013929 112 18191329207670898860
125118 31 18260270793797322132
12522641 126 15410349741298333804
12522641 24 17968369049715820538
12838862 33 17240752974943027909
13627175 4 12391526277737936340
13668630 136 13182730438707289221
13673619 4 10519984859305421939
13690498 29 17559667533439390159
13782708 43 10375874039522113570
13911987 19 17346885550263382447
14178184 131 11097866206676335281
14251757 52 18408881837273307768
14344974 52 18410288126189453335
14347424 109 18187920639424879754
14394314 77 18338241453964468825
14556957 393 16630541642792220385
15183329 4 18201440250851362730
15276724 80 18337669702751892668
15289351 153 18272370855057682976
15320295 198 18341334504363028728
15350500 55 18410574033235076028
15461852 350 18131632322429625647
15510800 12 11599719618740377501
1577012 14 18187640289492009355
16994733 274 18187926226934284144
17134984 74 11600014237261194604
17686467 74 18113616829325598095
17780758 139 12107787407113150943
1818759 1 12535343532696294141
18335252 114 18202845448835440484
20105231 36 12324238348678687168
2026 5 10519719885957274188
21033648 29 17967253122026589226
21130935 74 17967250914698743306
21150785 3 17203609293674885599
21267235 1 10375869684034969742
21424621 283 18186523198040903594
21585482 111 18337112380229593468
21623969 137 11818988587322554544
21781055 127 16950568766913756342
21814621 53 18041009440181429970
21867018 265 17774432898009565695
23081809 10 15984836895583762754
23569943 247 10517503262526961420
23576562 1 17773868877723031245
25269216 80 17988065795652728063
255183 451 11887667394655286554
3178227 256 12973606642808627078
3504750 166 8214144049969123267
3633792 109 18202008694748852990
3918712 181 18408878525453310457
4073 2 18261397784014409074
4144715 1 17970080039420215050
4169191 19 18272660042719607809
437795 150 15482090792089086557
437795 83 17989212533997163353
465052 167 11169907295676508130
5385378 56 16588017983891910786
54039377 194 11527941279681863641
5718773 13 9439409021014581936
5937810 71 18201159842034928473
6009941 240 18041002864369786218
6058803 2 14854453347737349322
6328613 192 18411702084176644545
636775 72 18334574642535381053
6691757 9 15936410082991244515

> <PUBCHEM_SHAPE_MULTIPOLES>
588.06
28.02
3.05
1.17
1.21
1.71
0.15
23.99
-7.96
1.46
0.24
-1.28
-0.04
1.73

> <PUBCHEM_SHAPE_SELFOVERLAP>
1285.83

> <PUBCHEM_SHAPE_VOLUME>
322.2

> <PUBCHEM_COORDINATE_TYPE>
2
5
10

$$$$
