72197484
  -OEChem-03242009253D

 47 50  0     0  0  0  0  0  0999 V2000
    5.2200    1.1001    0.5040 N   0  0  0  0  0  0  0  0  0  0  0  0
    0.9783    2.1730   -0.4721 N   0  0  0  0  0  0  0  0  0  0  0  0
   -0.0219    0.0171   -0.8343 N   0  0  0  0  0  0  0  0  0  0  0  0
    1.0721   -1.9484   -0.1660 N   0  0  0  0  0  0  0  0  0  0  0  0
    2.1464    0.1865    0.2266 C   0  0  0  0  0  0  0  0  0  0  0  0
    3.3208   -0.4978    0.8591 C   0  0  0  0  0  0  0  0  0  0  0  0
    3.1348    2.4801    0.6010 C   0  0  0  0  0  0  0  0  0  0  0  0
    2.0489    1.5679    0.0974 C   0  0  0  0  0  0  0  0  0  0  0  0
    4.6468   -0.2006    0.1552 C   0  0  0  0  0  0  0  0  0  0  0  0
    4.4903    2.2350   -0.0631 C   0  0  0  0  0  0  0  0  0  0  0  0
    1.0652   -0.5357   -0.2598 C   0  0  0  0  0  0  0  0  0  0  0  0
    0.0009    1.3574   -0.9080 C   0  0  0  0  0  0  0  0  0  0  0  0
   -1.1814    2.0118   -1.5379 C   0  0  0  0  0  0  0  0  0  0  0  0
   -2.3928    2.0979   -0.6309 C   0  0  0  0  0  0  0  0  0  0  0  0
    0.0429   -2.8952   -0.0344 C   0  0  0  0  0  0  0  0  0  0  0  0
   -3.2023    0.9783   -0.4399 C   0  0  0  0  0  0  0  0  0  0  0  0
   -2.6979    3.2972    0.0125 C   0  0  0  0  0  0  0  0  0  0  0  0
    0.2001   -4.1750   -0.5666 C   0  0  0  0  0  0  0  0  0  0  0  0
   -1.1364   -2.5556    0.6282 C   0  0  0  0  0  0  0  0  0  0  0  0
   -4.3174    1.0579    0.3946 C   0  0  0  0  0  0  0  0  0  0  0  0
   -3.8127    3.3769    0.8470 C   0  0  0  0  0  0  0  0  0  0  0  0
   -0.8221   -5.1151   -0.4361 C   0  0  0  0  0  0  0  0  0  0  0  0
   -2.1587   -3.4955    0.7589 C   0  0  0  0  0  0  0  0  0  0  0  0
   -4.6225    2.2572    1.0381 C   0  0  0  0  0  0  0  0  0  0  0  0
   -2.0015   -4.7754    0.2266 C   0  0  0  0  0  0  0  0  0  0  0  0
    3.3718   -0.1966    1.9144 H   0  0  0  0  0  0  0  0  0  0  0  0
    3.2077   -1.5851    0.8969 H   0  0  0  0  0  0  0  0  0  0  0  0
    2.8399    3.5174    0.3947 H   0  0  0  0  0  0  0  0  0  0  0  0
    3.2043    2.4010    1.6931 H   0  0  0  0  0  0  0  0  0  0  0  0
    5.3746   -0.9555    0.4765 H   0  0  0  0  0  0  0  0  0  0  0  0
    4.5580   -0.3082   -0.9330 H   0  0  0  0  0  0  0  0  0  0  0  0
    4.3950    2.1320   -1.1511 H   0  0  0  0  0  0  0  0  0  0  0  0
    5.1131    3.1215    0.1063 H   0  0  0  0  0  0  0  0  0  0  0  0
    5.2666    1.1941    1.5182 H   0  0  0  0  0  0  0  0  0  0  0  0
   -1.4578    1.4623   -2.4476 H   0  0  0  0  0  0  0  0  0  0  0  0
   -0.9082    3.0170   -1.8848 H   0  0  0  0  0  0  0  0  0  0  0  0
    1.9502   -2.3565   -0.4751 H   0  0  0  0  0  0  0  0  0  0  0  0
   -2.9787    0.0387   -0.9379 H   0  0  0  0  0  0  0  0  0  0  0  0
   -2.0743    4.1763   -0.1260 H   0  0  0  0  0  0  0  0  0  0  0  0
    1.1136   -4.4531   -1.0861 H   0  0  0  0  0  0  0  0  0  0  0  0
   -1.2781   -1.5701    1.0637 H   0  0  0  0  0  0  0  0  0  0  0  0
   -4.9479    0.1861    0.5430 H   0  0  0  0  0  0  0  0  0  0  0  0
   -4.0501    4.3105    1.3486 H   0  0  0  0  0  0  0  0  0  0  0  0
   -0.6998   -6.1116   -0.8505 H   0  0  0  0  0  0  0  0  0  0  0  0
   -3.0760   -3.2319    1.2772 H   0  0  0  0  0  0  0  0  0  0  0  0
   -5.4904    2.3193    1.6879 H   0  0  0  0  0  0  0  0  0  0  0  0
   -2.7973   -5.5074    0.3288 H   0  0  0  0  0  0  0  0  0  0  0  0
  1  9  1  0  0  0  0
  1 10  1  0  0  0  0
  1 34  1  0  0  0  0
  2  8  1  0  0  0  0
  2 12  2  0  0  0  0
  3 11  2  0  0  0  0
  3 12  1  0  0  0  0
  4 11  1  0  0  0  0
  4 15  1  0  0  0  0
  4 37  1  0  0  0  0
  5  6  1  0  0  0  0
  5  8  2  0  0  0  0
  5 11  1  0  0  0  0
  6  9  1  0  0  0  0
  6 26  1  0  0  0  0
  6 27  1  0  0  0  0
  7  8  1  0  0  0  0
  7 10  1  0  0  0  0
  7 28  1  0  0  0  0
  7 29  1  0  0  0  0
  9 30  1  0  0  0  0
  9 31  1  0  0  0  0
 10 32  1  0  0  0  0
 10 33  1  0  0  0  0
 12 13  1  0  0  0  0
 13 14  1  0  0  0  0
 13 35  1  0  0  0  0
 13 36  1  0  0  0  0
 14 16  2  0  0  0  0
 14 17  1  0  0  0  0
 15 18  2  0  0  0  0
 15 19  1  0  0  0  0
 16 20  1  0  0  0  0
 16 38  1  0  0  0  0
 17 21  2  0  0  0  0
 17 39  1  0  0  0  0
 18 22  1  0  0  0  0
 18 40  1  0  0  0  0
 19 23  2  0  0  0  0
 19 41  1  0  0  0  0
 20 24  2  0  0  0  0
 20 42  1  0  0  0  0
 21 24  1  0  0  0  0
 21 43  1  0  0  0  0
 22 25  2  0  0  0  0
 22 44  1  0  0  0  0
 23 25  1  0  0  0  0
 23 45  1  0  0  0  0
 24 46  1  0  0  0  0
 25 47  1  0  0  0  0
M  END
> <PUBCHEM_COMPOUND_CID>
72197484

> <PUBCHEM_CONFORMER_RMSD>
0.8

> <PUBCHEM_CONFORMER_DIVERSEORDER>
1
51
42
37
36
24
45
26
56
22
41
27
16
38
40
35
5
52
13
25
39
12
33
44
28
30
17
50
31
9
23
54
6
4
11
55
58
7
21
20
57
43
48
15
32
47
53
19
3
10
18
59
49
34
2
14
29
8
46

> <PUBCHEM_MMFF94_PARTIAL_CHARGES>
37
1 -0.9
10 0.27
11 0.41
12 0.48
13 0.29
14 -0.14
15 0.1
16 -0.15
17 -0.15
18 -0.15
19 -0.15
2 -0.62
20 -0.15
21 -0.15
22 -0.15
23 -0.15
24 -0.15
25 -0.15
3 -0.62
34 0.36
37 0.4
38 0.15
39 0.15
4 -0.6
40 0.15
41 0.15
42 0.15
43 0.15
44 0.15
45 0.15
46 0.15
47 0.15
5 -0.14
6 0.14
7 0.14
8 0.17
9 0.27

> <PUBCHEM_EFFECTIVE_ROTOR_COUNT>
5

> <PUBCHEM_PHARMACOPHORE_FEATURES>
9
1 1 cation
1 1 donor
1 4 donor
3 2 3 12 cation
3 3 4 11 cation
6 14 16 17 20 21 24 rings
6 15 18 19 22 23 25 rings
6 2 3 5 8 11 12 rings
7 1 5 6 7 8 9 10 rings

> <PUBCHEM_HEAVY_ATOM_COUNT>
25

> <PUBCHEM_ATOM_DEF_STEREO_COUNT>
0

> <PUBCHEM_ATOM_UDEF_STEREO_COUNT>
0

> <PUBCHEM_BOND_DEF_STEREO_COUNT>
0

> <PUBCHEM_BOND_UDEF_STEREO_COUNT>
0

> <PUBCHEM_ISOTOPIC_ATOM_COUNT>
0

> <PUBCHEM_COMPONENT_COUNT>
1

> <PUBCHEM_CACTVS_TAUTO_COUNT>
3

> <PUBCHEM_CONFORMER_ID>
044DA56C00000001

> <PUBCHEM_MMFF94_ENERGY>
78.8212

> <PUBCHEM_FEATURE_SELFOVERLAP>
45.823

> <PUBCHEM_SHAPE_FINGERPRINT>
10064457 181 18410856564162181872
1100329 8 18193548979096487058
11370993 70 18411420566572300361
114674 6 17756998809463213091
11552529 35 18193835066329613696
12160290 23 17907539805141704188
12553582 1 16752958742541787151
12788726 201 18125979779989817159
13004483 165 17977939416870042499
13140716 1 18049439545664345335
13533116 47 17834680397214983929
13540713 5 17969496203784852188
13692114 37 18270101505253609135
138480 1 17402048899042731571
13899415 180 9006481754727115896
14363568 33 17691419507750258379
14790565 3 18338240362709933596
14863182 85 18118701919183000101
14866123 147 18409720768972520762
15927050 60 18411980226866102982
17138139 8 17769332263404418839
19591789 44 18337386020525702702
1979834 28 17975738019541509849
20028762 73 18342730819847934159
20739085 24 18046350734535604756
20775438 99 15750872181397892631
21041028 32 17688026831051293886
21133410 38 18200888271436931843
21202864 24 18336266833325663488
21344244 78 17330547056377214515
21796203 349 17402073101389680355
23419403 2 17414475815730699742
23559900 14 17616246979917008973
23845131 108 18410847751068508713
25147074 1 17751072725600687804
283562 15 17686895429930018688
3091708 16 9556070507240028422
3421961 26 17546449977521995593
345986 75 17540224954912919554
5309563 4 16970828084172054743
6442390 28 18411142389972067724
653340 110 18124023792233373856
79837 15 18411416232570100659
86090 222 17029701584831894161
9777508 108 18340481278770100624

> <PUBCHEM_SHAPE_MULTIPOLES>
494.56
8.29
7.04
1
2.95
11.27
0.09
-9.63
-2.65
-4.69
-0.07
-0.39
-0.29
0.05

> <PUBCHEM_SHAPE_SELFOVERLAP>
1072.75

> <PUBCHEM_SHAPE_VOLUME>
266.1

> <PUBCHEM_COORDINATE_TYPE>
2
5
10

$$$$
