
 OpenBabel03242023313D

 63 65  0  0  0  0  0  0  0  0999 V2000
   -7.3800    1.8987    1.6366 C   0  0  0  0  0  0  0  0  0  0  0  0
   -5.9832    1.6378    1.6167 O   0  0  0  0  0  0  0  0  0  0  0  0
   -5.1351    2.7146    1.4956 C   0  0  0  0  0  0  0  0  0  0  0  0
   -5.5809    3.9721    1.0530 C   0  0  0  0  0  0  0  0  0  0  0  0
   -4.7123    5.0625    1.0021 C   0  0  0  0  0  0  0  0  0  0  0  0
   -3.3923    4.9004    1.3605 C   0  0  0  0  0  0  0  0  0  0  0  0
   -2.9284    3.6476    1.7692 C   0  0  0  0  0  0  0  0  0  0  0  0
   -3.7746    2.5217    1.8463 C   0  0  0  0  0  0  0  0  0  0  0  0
   -3.2468    1.3017    2.2365 N   0  0  0  0  0  0  0  0  0  0  0  0
   -3.7123    0.0457    1.6256 C   0  0  0  0  0  0  0  0  0  0  0  0
   -2.5065   -0.7781    1.1176 C   0  0  0  0  0  0  0  0  0  0  0  0
   -1.4546   -1.0236    2.1308 N   0  0  0  0  0  0  0  0  0  0  0  0
   -1.9324   -1.9036    3.2126 C   0  0  0  0  0  0  0  0  0  0  0  0
   -2.2294   -3.3297    2.7174 C   0  0  0  0  0  0  0  0  0  0  0  0
   -1.1056   -3.9528    2.0883 O   0  0  0  0  0  0  0  0  0  0  0  0
    0.0312   -4.1363    2.9388 C   0  0  0  0  0  0  0  0  0  0  0  0
   -0.3144   -5.0701    4.0898 C   0  0  0  0  0  0  0  0  0  0  0  0
    0.8281   -5.3843    4.8658 O   0  0  0  0  0  0  0  0  0  0  0  0
    0.5720   -6.0308    6.0528 C   0  0  0  0  0  0  0  0  0  0  0  0
    1.3453   -5.5418    7.1154 C   0  0  0  0  0  0  0  0  0  0  0  0
    1.3429   -6.1685    8.3606 C   0  0  0  0  0  0  0  0  0  0  0  0
    2.2277   -5.6917    9.4737 C   0  0  0  0  0  0  0  0  0  0  0  0
    0.5533   -7.3069    8.5371 C   0  0  0  0  0  0  0  0  0  0  0  0
   -0.2414   -7.8108    7.4936 C   0  0  0  0  0  0  0  0  0  0  0  0
   -1.0146   -9.0813    7.7418 C   0  0  0  0  0  0  0  0  0  0  0  0
   -0.2517   -7.1675    6.2325 C   0  0  0  0  0  0  0  0  0  0  0  0
   -1.1143   -7.7266    5.1310 C   0  0  0  0  0  0  0  0  0  0  0  0
   -1.0136    0.2879    2.6534 C   0  0  0  0  0  0  0  0  0  0  0  0
   -2.1511    1.1717    3.2125 C   0  0  0  0  0  0  0  0  0  0  0  0
   -7.8929    0.9612    1.8714 H   0  0  0  0  0  0  0  0  0  0  0  0
   -7.7360    2.2284    0.6550 H   0  0  0  0  0  0  0  0  0  0  0  0
   -7.6342    2.6234    2.4169 H   0  0  0  0  0  0  0  0  0  0  0  0
   -6.6094    4.1354    0.7463 H   0  0  0  0  0  0  0  0  0  0  0  0
   -5.0765    6.0284    0.6608 H   0  0  0  0  0  0  0  0  0  0  0  0
   -2.7004    5.7401    1.3193 H   0  0  0  0  0  0  0  0  0  0  0  0
   -1.8710    3.5553    1.9860 H   0  0  0  0  0  0  0  0  0  0  0  0
   -4.3568    0.2068    0.7558 H   0  0  0  0  0  0  0  0  0  0  0  0
   -4.2904   -0.5244    2.3628 H   0  0  0  0  0  0  0  0  0  0  0  0
   -2.0454   -0.2385    0.2789 H   0  0  0  0  0  0  0  0  0  0  0  0
   -2.8623   -1.7154    0.6789 H   0  0  0  0  0  0  0  0  0  0  0  0
   -2.8240   -1.5133    3.7134 H   0  0  0  0  0  0  0  0  0  0  0  0
   -1.1577   -1.9560    3.9873 H   0  0  0  0  0  0  0  0  0  0  0  0
   -3.0468   -3.3297    1.9905 H   0  0  0  0  0  0  0  0  0  0  0  0
   -2.6022   -3.9473    3.5409 H   0  0  0  0  0  0  0  0  0  0  0  0
    0.4416   -3.1819    3.2832 H   0  0  0  0  0  0  0  0  0  0  0  0
    0.8211   -4.5902    2.3290 H   0  0  0  0  0  0  0  0  0  0  0  0
   -0.7154   -5.9547    3.5991 H   0  0  0  0  0  0  0  0  0  0  0  0
   -1.0834   -4.6316    4.7343 H   0  0  0  0  0  0  0  0  0  0  0  0
    1.9720   -4.6660    6.9514 H   0  0  0  0  0  0  0  0  0  0  0  0
    2.6823   -4.7234    9.2400 H   0  0  0  0  0  0  0  0  0  0  0  0
    3.0332   -6.4148    9.6399 H   0  0  0  0  0  0  0  0  0  0  0  0
    1.6532   -5.5761   10.3983 H   0  0  0  0  0  0  0  0  0  0  0  0
    0.5801   -7.8263    9.4931 H   0  0  0  0  0  0  0  0  0  0  0  0
   -0.8806   -9.4469    8.7641 H   0  0  0  0  0  0  0  0  0  0  0  0
   -0.6594   -9.8690    7.0679 H   0  0  0  0  0  0  0  0  0  0  0  0
   -2.0855   -8.9158    7.5880 H   0  0  0  0  0  0  0  0  0  0  0  0
   -1.5754   -8.6863    5.3704 H   0  0  0  0  0  0  0  0  0  0  0  0
   -0.5172   -7.9059    4.2322 H   0  0  0  0  0  0  0  0  0  0  0  0
   -1.9473   -7.0444    4.9251 H   0  0  0  0  0  0  0  0  0  0  0  0
   -0.5192    0.8263    1.8328 H   0  0  0  0  0  0  0  0  0  0  0  0
   -0.2394    0.1450    3.4173 H   0  0  0  0  0  0  0  0  0  0  0  0
   -1.7290    2.1326    3.5224 H   0  0  0  0  0  0  0  0  0  0  0  0
   -2.5509    0.7225    4.1295 H   0  0  0  0  0  0  0  0  0  0  0  0
  1  2  1  0  0  0  0
  1 30  1  0  0  0  0
  1 31  1  0  0  0  0
  1 32  1  0  0  0  0
  2  3  1  0  0  0  0
  3  4  1  0  0  0  0
  3  8  2  0  0  0  0
  4  5  2  0  0  0  0
  4 33  1  0  0  0  0
  5  6  1  0  0  0  0
  5 34  1  0  0  0  0
  6  7  2  0  0  0  0
  6 35  1  0  0  0  0
  7  8  1  0  0  0  0
  7 36  1  0  0  0  0
  8  9  1  0  0  0  0
  9 10  1  0  0  0  0
  9 29  1  0  0  0  0
 10 11  1  0  0  0  0
 10 37  1  0  0  0  0
 10 38  1  0  0  0  0
 11 12  1  0  0  0  0
 11 39  1  0  0  0  0
 11 40  1  0  0  0  0
 12 13  1  0  0  0  0
 12 28  1  0  0  0  0
 13 14  1  0  0  0  0
 13 41  1  0  0  0  0
 13 42  1  0  0  0  0
 14 15  1  0  0  0  0
 14 43  1  0  0  0  0
 14 44  1  0  0  0  0
 15 16  1  0  0  0  0
 16 17  1  0  0  0  0
 16 45  1  0  0  0  0
 16 46  1  0  0  0  0
 17 18  1  0  0  0  0
 17 47  1  0  0  0  0
 17 48  1  0  0  0  0
 18 19  1  0  0  0  0
 19 20  1  0  0  0  0
 19 26  2  0  0  0  0
 20 21  2  0  0  0  0
 20 49  1  0  0  0  0
 21 22  1  0  0  0  0
 21 23  1  0  0  0  0
 22 50  1  0  0  0  0
 22 51  1  0  0  0  0
 22 52  1  0  0  0  0
 23 24  2  0  0  0  0
 23 53  1  0  0  0  0
 24 25  1  0  0  0  0
 24 26  1  0  0  0  0
 25 54  1  0  0  0  0
 25 55  1  0  0  0  0
 25 56  1  0  0  0  0
 26 27  1  0  0  0  0
 27 57  1  0  0  0  0
 27 58  1  0  0  0  0
 27 59  1  0  0  0  0
 28 29  1  0  0  0  0
 28 60  1  0  0  0  0
 28 61  1  0  0  0  0
 29 62  1  0  0  0  0
 29 63  1  0  0  0  0
M  END
>  <Energy>
207.588

$$$$
