
 OpenBabel03242023313D

 63 65  0  0  0  0  0  0  0  0999 V2000
   -4.9757    0.9281    1.7973 C   0  0  0  0  0  0  0  0  0  0  0  0
   -3.9370   -0.0363    1.6533 O   0  0  0  0  0  0  0  0  0  0  0  0
   -4.0271   -1.1382    2.4763 C   0  0  0  0  0  0  0  0  0  0  0  0
   -4.5539   -1.0299    3.7768 C   0  0  0  0  0  0  0  0  0  0  0  0
   -4.5691   -2.1258    4.6360 C   0  0  0  0  0  0  0  0  0  0  0  0
   -4.0541   -3.3382    4.2060 C   0  0  0  0  0  0  0  0  0  0  0  0
   -3.5142   -3.4471    2.9218 C   0  0  0  0  0  0  0  0  0  0  0  0
   -3.4676   -2.3612    2.0208 C   0  0  0  0  0  0  0  0  0  0  0  0
   -2.8750   -2.5332    0.7797 N   0  0  0  0  0  0  0  0  0  0  0  0
   -3.3878   -1.9290   -0.4552 C   0  0  0  0  0  0  0  0  0  0  0  0
   -2.2408   -1.2276   -1.2188 C   0  0  0  0  0  0  0  0  0  0  0  0
   -1.0599   -2.0761   -1.5052 N   0  0  0  0  0  0  0  0  0  0  0  0
   -1.2577   -3.0987   -2.5497 C   0  0  0  0  0  0  0  0  0  0  0  0
   -1.7142   -2.5811   -3.9307 C   0  0  0  0  0  0  0  0  0  0  0  0
   -0.8434   -1.5585   -4.4245 O   0  0  0  0  0  0  0  0  0  0  0  0
   -1.3397   -0.8566   -5.5747 C   0  0  0  0  0  0  0  0  0  0  0  0
   -2.6144   -0.0818   -5.2451 C   0  0  0  0  0  0  0  0  0  0  0  0
   -3.0734    0.7414   -6.3047 O   0  0  0  0  0  0  0  0  0  0  0  0
   -4.1099    1.6061   -6.0203 C   0  0  0  0  0  0  0  0  0  0  0  0
   -4.1716    2.7229   -6.8879 C   0  0  0  0  0  0  0  0  0  0  0  0
   -3.1859    2.9418   -8.0076 C   0  0  0  0  0  0  0  0  0  0  0  0
   -5.1654    3.7040   -6.7102 C   0  0  0  0  0  0  0  0  0  0  0  0
   -6.1121    3.5909   -5.6969 C   0  0  0  0  0  0  0  0  0  0  0  0
   -7.1894    4.6135   -5.5003 C   0  0  0  0  0  0  0  0  0  0  0  0
   -6.0708    2.4722   -4.8665 C   0  0  0  0  0  0  0  0  0  0  0  0
   -5.0979    1.4630   -5.0149 C   0  0  0  0  0  0  0  0  0  0  0  0
   -5.2558    0.2941   -4.0795 C   0  0  0  0  0  0  0  0  0  0  0  0
   -0.6110   -2.6938   -0.2344 C   0  0  0  0  0  0  0  0  0  0  0  0
   -1.7092   -3.4097    0.5967 C   0  0  0  0  0  0  0  0  0  0  0  0
   -4.9804    1.5509    0.8979 H   0  0  0  0  0  0  0  0  0  0  0  0
   -4.7802    1.5817    2.6529 H   0  0  0  0  0  0  0  0  0  0  0  0
   -5.9623    0.4574    1.8795 H   0  0  0  0  0  0  0  0  0  0  0  0
   -4.9292   -0.0852    4.1560 H   0  0  0  0  0  0  0  0  0  0  0  0
   -4.9703   -2.0268    5.6406 H   0  0  0  0  0  0  0  0  0  0  0  0
   -4.0603   -4.2010    4.8664 H   0  0  0  0  0  0  0  0  0  0  0  0
   -3.1345   -4.4193    2.6190 H   0  0  0  0  0  0  0  0  0  0  0  0
   -4.2114   -1.2279   -0.2972 H   0  0  0  0  0  0  0  0  0  0  0  0
   -3.8076   -2.7259   -1.0816 H   0  0  0  0  0  0  0  0  0  0  0  0
   -1.8953   -0.3786   -0.6132 H   0  0  0  0  0  0  0  0  0  0  0  0
   -2.6271   -0.7781   -2.1377 H   0  0  0  0  0  0  0  0  0  0  0  0
   -1.9739   -3.8618   -2.2251 H   0  0  0  0  0  0  0  0  0  0  0  0
   -0.2959   -3.6034   -2.7056 H   0  0  0  0  0  0  0  0  0  0  0  0
   -2.7419   -2.2279   -3.8275 H   0  0  0  0  0  0  0  0  0  0  0  0
   -1.7198   -3.4088   -4.6489 H   0  0  0  0  0  0  0  0  0  0  0  0
   -1.5017   -1.5593   -6.4005 H   0  0  0  0  0  0  0  0  0  0  0  0
   -0.5573   -0.1633   -5.9029 H   0  0  0  0  0  0  0  0  0  0  0  0
   -2.4405    0.5085   -4.3384 H   0  0  0  0  0  0  0  0  0  0  0  0
   -3.3755   -0.8376   -5.0767 H   0  0  0  0  0  0  0  0  0  0  0  0
   -2.5329    2.0826   -8.1823 H   0  0  0  0  0  0  0  0  0  0  0  0
   -2.5542    3.8074   -7.7819 H   0  0  0  0  0  0  0  0  0  0  0  0
   -3.7231    3.1304   -8.9442 H   0  0  0  0  0  0  0  0  0  0  0  0
   -5.1944    4.5627   -7.3796 H   0  0  0  0  0  0  0  0  0  0  0  0
   -7.0461    5.4801   -6.1539 H   0  0  0  0  0  0  0  0  0  0  0  0
   -7.1859    4.9714   -4.4656 H   0  0  0  0  0  0  0  0  0  0  0  0
   -8.1672    4.1750   -5.7235 H   0  0  0  0  0  0  0  0  0  0  0  0
   -6.8291    2.3772   -4.0898 H   0  0  0  0  0  0  0  0  0  0  0  0
   -6.1623    0.3800   -3.4672 H   0  0  0  0  0  0  0  0  0  0  0  0
   -4.4264    0.2384   -3.3721 H   0  0  0  0  0  0  0  0  0  0  0  0
   -5.3688   -0.6380   -4.6408 H   0  0  0  0  0  0  0  0  0  0  0  0
   -0.1830   -1.8945    0.3848 H   0  0  0  0  0  0  0  0  0  0  0  0
    0.2140   -3.3916   -0.4235 H   0  0  0  0  0  0  0  0  0  0  0  0
   -1.2545   -3.6966    1.5527 H   0  0  0  0  0  0  0  0  0  0  0  0
   -2.0274   -4.3304    0.0952 H   0  0  0  0  0  0  0  0  0  0  0  0
  1  2  1  0  0  0  0
  1 30  1  0  0  0  0
  1 31  1  0  0  0  0
  1 32  1  0  0  0  0
  2  3  1  0  0  0  0
  3  4  1  0  0  0  0
  3  8  2  0  0  0  0
  4  5  2  0  0  0  0
  4 33  1  0  0  0  0
  5  6  1  0  0  0  0
  5 34  1  0  0  0  0
  6  7  2  0  0  0  0
  6 35  1  0  0  0  0
  7  8  1  0  0  0  0
  7 36  1  0  0  0  0
  8  9  1  0  0  0  0
  9 10  1  0  0  0  0
  9 29  1  0  0  0  0
 10 11  1  0  0  0  0
 10 37  1  0  0  0  0
 10 38  1  0  0  0  0
 11 12  1  0  0  0  0
 11 39  1  0  0  0  0
 11 40  1  0  0  0  0
 12 13  1  0  0  0  0
 12 28  1  0  0  0  0
 13 14  1  0  0  0  0
 13 41  1  0  0  0  0
 13 42  1  0  0  0  0
 14 15  1  0  0  0  0
 14 43  1  0  0  0  0
 14 44  1  0  0  0  0
 15 16  1  0  0  0  0
 16 17  1  0  0  0  0
 16 45  1  0  0  0  0
 16 46  1  0  0  0  0
 17 18  1  0  0  0  0
 17 47  1  0  0  0  0
 17 48  1  0  0  0  0
 18 19  1  0  0  0  0
 19 20  1  0  0  0  0
 19 26  2  0  0  0  0
 20 21  1  0  0  0  0
 20 22  2  0  0  0  0
 21 49  1  0  0  0  0
 21 50  1  0  0  0  0
 21 51  1  0  0  0  0
 22 23  1  0  0  0  0
 22 52  1  0  0  0  0
 23 24  1  0  0  0  0
 23 25  2  0  0  0  0
 24 53  1  0  0  0  0
 24 54  1  0  0  0  0
 24 55  1  0  0  0  0
 25 26  1  0  0  0  0
 25 56  1  0  0  0  0
 26 27  1  0  0  0  0
 27 57  1  0  0  0  0
 27 58  1  0  0  0  0
 27 59  1  0  0  0  0
 28 29  1  0  0  0  0
 28 60  1  0  0  0  0
 28 61  1  0  0  0  0
 29 62  1  0  0  0  0
 29 63  1  0  0  0  0
M  END
>  <Energy>
207.501

$$$$
