121852
  -OEChem-03232009363D

 70 73  0     1  0  0  0  0  0999 V2000
   -3.1684   -0.3826   -2.5574 O   0  0  0  0  0  0  0  0  0  0  0  0
   -3.8897   -1.0906    1.9995 O   0  0  0  0  0  0  0  0  0  0  0  0
    2.9338   -0.1102    2.1766 O   0  0  0  0  0  0  0  0  0  0  0  0
    2.2526    1.9567   -2.1537 O   0  0  0  0  0  0  0  0  0  0  0  0
   -3.4294   -0.7790   -0.2704 N   0  0  0  0  0  0  0  0  0  0  0  0
    0.9252   -2.5243    0.1705 N   0  0  2  0  0  0  0  0  0  0  0  0
   -2.8788    1.9241    0.2502 C   0  0  0  0  0  0  0  0  0  0  0  0
   -3.0035    3.4415    0.4666 C   0  0  0  0  0  0  0  0  0  0  0  0
   -1.3714    1.7153    0.4768 C   0  0  0  0  0  0  0  0  0  0  0  0
   -1.7538    4.0384   -0.1743 C   0  0  0  0  0  0  0  0  0  0  0  0
   -0.7005    2.9321   -0.1571 C   0  0  0  0  0  0  0  0  0  0  0  0
   -3.3290    1.5319   -1.1588 C   0  0  0  0  0  0  0  0  0  0  0  0
   -3.7446    1.1551    1.2397 C   0  0  0  0  0  0  0  0  0  0  0  0
   -3.2791    0.0403   -1.4040 C   0  0  0  0  0  0  0  0  0  0  0  0
   -3.6751   -0.3417    1.0436 C   0  0  0  0  0  0  0  0  0  0  0  0
   -3.3745   -2.2203   -0.4912 C   0  0  0  0  0  0  0  0  0  0  0  0
   -1.9604   -2.7758   -0.3582 C   0  0  0  0  0  0  0  0  0  0  0  0
   -1.3678   -2.5515    1.0369 C   0  0  0  0  0  0  0  0  0  0  0  0
    1.3724   -1.2209    0.6481 C   0  0  2  0  0  0  0  0  0  0  0  0
    0.0350   -3.1491    1.1417 C   0  0  0  0  0  0  0  0  0  0  0  0
    1.8107   -0.3468   -0.5266 C   0  0  0  0  0  0  0  0  0  0  0  0
    2.0760   -3.3866   -0.1035 C   0  0  0  0  0  0  0  0  0  0  0  0
    2.5462   -1.3692    1.6122 C   0  0  0  0  0  0  0  0  0  0  0  0
    2.5371    0.8706   -0.0255 C   0  0  0  0  0  0  0  0  0  0  0  0
    1.6670   -4.5430   -1.0124 C   0  0  0  0  0  0  0  0  0  0  0  0
    3.0605    0.9142    1.2737 C   0  0  0  0  0  0  0  0  0  0  0  0
    2.7230    1.9704   -0.8735 C   0  0  0  0  0  0  0  0  0  0  0  0
    2.8413   -5.4672   -1.2952 C   0  0  0  0  0  0  0  0  0  0  0  0
    3.7242    2.0568    1.7278 C   0  0  0  0  0  0  0  0  0  0  0  0
    3.3970    3.1054   -0.4217 C   0  0  0  0  0  0  0  0  0  0  0  0
    3.8937    3.1499    0.8792 C   0  0  0  0  0  0  0  0  0  0  0  0
    3.1300    1.4564   -3.1596 C   0  0  0  0  0  0  0  0  0  0  0  0
   -3.0023    3.6778    1.5386 H   0  0  0  0  0  0  0  0  0  0  0  0
   -3.9195    3.8634    0.0399 H   0  0  0  0  0  0  0  0  0  0  0  0
   -0.9961    0.7850    0.0448 H   0  0  0  0  0  0  0  0  0  0  0  0
   -1.1410    1.6965    1.5496 H   0  0  0  0  0  0  0  0  0  0  0  0
   -1.4168    4.9290    0.3658 H   0  0  0  0  0  0  0  0  0  0  0  0
   -1.9593    4.3422   -1.2071 H   0  0  0  0  0  0  0  0  0  0  0  0
    0.1864    3.2324    0.4090 H   0  0  0  0  0  0  0  0  0  0  0  0
   -0.3813    2.7067   -1.1804 H   0  0  0  0  0  0  0  0  0  0  0  0
   -4.3643    1.8507   -1.3345 H   0  0  0  0  0  0  0  0  0  0  0  0
   -2.7084    2.0143   -1.9228 H   0  0  0  0  0  0  0  0  0  0  0  0
   -3.4363    1.3741    2.2695 H   0  0  0  0  0  0  0  0  0  0  0  0
   -4.7974    1.4490    1.1450 H   0  0  0  0  0  0  0  0  0  0  0  0
   -3.7569   -2.4545   -1.4914 H   0  0  0  0  0  0  0  0  0  0  0  0
   -4.0360   -2.7273    0.2212 H   0  0  0  0  0  0  0  0  0  0  0  0
   -1.9810   -3.8498   -0.5797 H   0  0  0  0  0  0  0  0  0  0  0  0
   -1.3280   -2.3038   -1.1194 H   0  0  0  0  0  0  0  0  0  0  0  0
   -2.0062   -3.0415    1.7823 H   0  0  0  0  0  0  0  0  0  0  0  0
   -1.3427   -1.4904    1.2925 H   0  0  0  0  0  0  0  0  0  0  0  0
    0.5757   -0.6711    1.1630 H   0  0  0  0  0  0  0  0  0  0  0  0
   -0.0727   -4.2263    0.9785 H   0  0  0  0  0  0  0  0  0  0  0  0
    0.3975   -3.0512    2.1719 H   0  0  0  0  0  0  0  0  0  0  0  0
    2.4870   -0.8751   -1.2067 H   0  0  0  0  0  0  0  0  0  0  0  0
    0.9266   -0.0565   -1.1075 H   0  0  0  0  0  0  0  0  0  0  0  0
    2.5096   -3.8023    0.8162 H   0  0  0  0  0  0  0  0  0  0  0  0
    2.8743   -2.8588   -0.6374 H   0  0  0  0  0  0  0  0  0  0  0  0
    2.2937   -2.0080    2.4646 H   0  0  0  0  0  0  0  0  0  0  0  0
    3.4558   -1.7783    1.1568 H   0  0  0  0  0  0  0  0  0  0  0  0
    1.2871   -4.1500   -1.9637 H   0  0  0  0  0  0  0  0  0  0  0  0
    0.8673   -5.1516   -0.5803 H   0  0  0  0  0  0  0  0  0  0  0  0
    2.5318   -6.2814   -1.9582 H   0  0  0  0  0  0  0  0  0  0  0  0
    3.2244   -5.9098   -0.3702 H   0  0  0  0  0  0  0  0  0  0  0  0
    3.6590   -4.9268   -1.7828 H   0  0  0  0  0  0  0  0  0  0  0  0
    4.1172    2.0995    2.7402 H   0  0  0  0  0  0  0  0  0  0  0  0
    3.5364    3.9599   -1.0784 H   0  0  0  0  0  0  0  0  0  0  0  0
    4.4146    4.0353    1.2318 H   0  0  0  0  0  0  0  0  0  0  0  0
    2.5806    1.4181   -4.1042 H   0  0  0  0  0  0  0  0  0  0  0  0
    3.4785    0.4479   -2.9177 H   0  0  0  0  0  0  0  0  0  0  0  0
    3.9866    2.1269   -3.2813 H   0  0  0  0  0  0  0  0  0  0  0  0
  1 14  2  0  0  0  0
  2 15  2  0  0  0  0
  3 23  1  0  0  0  0
  3 26  1  0  0  0  0
  4 27  1  0  0  0  0
  4 32  1  0  0  0  0
  5 14  1  0  0  0  0
  5 15  1  0  0  0  0
  5 16  1  0  0  0  0
  6 19  1  0  0  0  0
  6 20  1  0  0  0  0
  6 22  1  0  0  0  0
  7  8  1  0  0  0  0
  7  9  1  0  0  0  0
  7 12  1  0  0  0  0
  7 13  1  0  0  0  0
  8 10  1  0  0  0  0
  8 33  1  0  0  0  0
  8 34  1  0  0  0  0
  9 11  1  0  0  0  0
  9 35  1  0  0  0  0
  9 36  1  0  0  0  0
 10 11  1  0  0  0  0
 10 37  1  0  0  0  0
 10 38  1  0  0  0  0
 11 39  1  0  0  0  0
 11 40  1  0  0  0  0
 12 14  1  0  0  0  0
 12 41  1  0  0  0  0
 12 42  1  0  0  0  0
 13 15  1  0  0  0  0
 13 43  1  0  0  0  0
 13 44  1  0  0  0  0
 16 17  1  0  0  0  0
 16 45  1  0  0  0  0
 16 46  1  0  0  0  0
 17 18  1  0  0  0  0
 17 47  1  0  0  0  0
 17 48  1  0  0  0  0
 18 20  1  0  0  0  0
 18 49  1  0  0  0  0
 18 50  1  0  0  0  0
 19 21  1  0  0  0  0
 19 23  1  0  0  0  0
 19 51  1  0  0  0  0
 20 52  1  0  0  0  0
 20 53  1  0  0  0  0
 21 24  1  0  0  0  0
 21 54  1  0  0  0  0
 21 55  1  0  0  0  0
 22 25  1  0  0  0  0
 22 56  1  0  0  0  0
 22 57  1  0  0  0  0
 23 58  1  0  0  0  0
 23 59  1  0  0  0  0
 24 26  2  0  0  0  0
 24 27  1  0  0  0  0
 25 28  1  0  0  0  0
 25 60  1  0  0  0  0
 25 61  1  0  0  0  0
 26 29  1  0  0  0  0
 27 30  2  0  0  0  0
 28 62  1  0  0  0  0
 28 63  1  0  0  0  0
 28 64  1  0  0  0  0
 29 31  2  0  0  0  0
 29 65  1  0  0  0  0
 30 31  1  0  0  0  0
 30 66  1  0  0  0  0
 31 67  1  0  0  0  0
 32 68  1  0  0  0  0
 32 69  1  0  0  0  0
 32 70  1  0  0  0  0
M  END
> <PUBCHEM_COMPOUND_CID>
121852

> <PUBCHEM_CONFORMER_RMSD>
1.4

> <PUBCHEM_CONFORMER_DIVERSEORDER>
1
42
77
61
36
39
58
47
81
59
54
75
46
96
68
53
85
2
34
95
29
62
99
49
30
66
60
98
3
72
9
8
65
84
70
27
44
38
7
25
89
88
83
45
41
87
13
43
50
24
67
94
4
56
92
63
14
69
26
28
40
15
5
71
57
20
93
80
97
33
19
82
48
37
86
22
17
23
32
74
90
91
6
18
16
78
55
79
12
21
31
11
51
52
64
10
73
35
76

> <PUBCHEM_MMFF94_PARTIAL_CHARGES>
26
1 -0.57
12 0.06
13 0.06
14 0.57
15 0.57
16 0.3
19 0.27
2 -0.57
20 0.27
21 0.14
22 0.27
23 0.28
24 -0.14
26 0.08
27 0.08
29 -0.15
3 -0.36
30 -0.15
31 -0.15
32 0.28
4 -0.36
5 -0.42
6 -0.81
65 0.15
66 0.15
67 0.15

> <PUBCHEM_EFFECTIVE_ROTOR_COUNT>
11.2

> <PUBCHEM_PHARMACOPHORE_FEATURES>
10
1 1 acceptor
1 2 acceptor
1 28 hydrophobe
1 3 acceptor
1 4 acceptor
1 6 cation
5 7 8 9 10 11 rings
6 24 26 27 29 30 31 rings
6 3 19 21 23 24 26 rings
6 5 7 12 13 14 15 rings

> <PUBCHEM_HEAVY_ATOM_COUNT>
32

> <PUBCHEM_ATOM_DEF_STEREO_COUNT>
0

> <PUBCHEM_ATOM_UDEF_STEREO_COUNT>
1

> <PUBCHEM_BOND_DEF_STEREO_COUNT>
0

> <PUBCHEM_BOND_UDEF_STEREO_COUNT>
0

> <PUBCHEM_ISOTOPIC_ATOM_COUNT>
0

> <PUBCHEM_COMPONENT_COUNT>
1

> <PUBCHEM_CACTVS_TAUTO_COUNT>
1

> <PUBCHEM_CONFORMER_ID>
0001DBFC00000001

> <PUBCHEM_MMFF94_ENERGY>
85.5695

> <PUBCHEM_FEATURE_SELFOVERLAP>
50.785

> <PUBCHEM_SHAPE_FINGERPRINT>
10670039 82 18045794630759689740
11285246 1 17767169425227808140
11513181 2 17985809472204641350
12156800 1 15961836314847068321
12553582 1 18193286401875392057
12788726 201 17467928801517853476
13122387 1 16177346765648541649
13224815 77 18342454880519825001
13911987 19 18120642789377209293
14114211 80 17981062004428726995
150020 26 17909843028514532227
15297060 5 18198638794156191640
15328829 1 17170108408103842700
15876981 60 17039220490558614660
17818456 19 18119799468780803008
20715895 44 17753015394810570893
20764821 26 18338796839619423920
22113638 7 17690551309843599875
22749437 52 18262784225131675201
23559900 14 18119816798663118969
35225 105 17758946404652736390
392239 28 17978497960509213480
469060 322 16375521109424856771
5081480 168 17557717862656750422
57527358 35 15115845465197896305
6287921 2 18337114475281304155

> <PUBCHEM_SHAPE_MULTIPOLES>
625.11
8.08
6.59
2.11
2.81
4.81
-0.93
-2.67
0.31
-4.67
-1.26
-1.06
-0.3
0.61

> <PUBCHEM_SHAPE_SELFOVERLAP>
1314.412

> <PUBCHEM_SHAPE_VOLUME>
353.2

> <PUBCHEM_COORDINATE_TYPE>
2
5
10

$$$$
