11430418
  -OEChem-03232009363D

 64 68  0     0  0  0  0  0  0999 V2000
   -4.2035    2.7019   -1.5739 O   0  0  0  0  0  0  0  0  0  0  0  0
    0.5303   -2.4613    0.5773 N   0  0  0  0  0  0  0  0  0  0  0  0
    3.0070   -1.1461    0.0338 N   0  0  0  0  0  0  0  0  0  0  0  0
   -3.8697    0.4158   -1.2623 N   0  0  0  0  0  0  0  0  0  0  0  0
   -5.2511   -0.8156    0.1975 N   0  0  0  0  0  0  0  0  0  0  0  0
    4.8521    0.1311    0.8755 N   0  0  0  0  0  0  0  0  0  0  0  0
   -2.8032    0.4279   -2.1583 N   0  0  0  0  0  0  0  0  0  0  0  0
    1.6491   -2.5654    1.5223 C   0  0  0  0  0  0  0  0  0  0  0  0
    1.0427   -2.3795   -0.7959 C   0  0  0  0  0  0  0  0  0  0  0  0
   -0.3708   -3.6041    0.7215 C   0  0  0  0  0  0  0  0  0  0  0  0
    2.5687   -1.3464    1.4207 C   0  0  0  0  0  0  0  0  0  0  0  0
    1.9432   -1.1546   -0.9751 C   0  0  0  0  0  0  0  0  0  0  0  0
   -1.5445   -3.4805   -0.2495 C   0  0  0  0  0  0  0  0  0  0  0  0
   -2.3522   -2.2067    0.0206 C   0  0  0  0  0  0  0  0  0  0  0  0
   -3.5109   -2.0298   -0.9464 C   0  0  0  0  0  0  0  0  0  0  0  0
   -7.2721    2.7003    1.4793 C   0  0  0  0  0  0  0  0  0  0  0  0
   -8.0349    1.3825    1.4616 C   0  0  0  0  0  0  0  0  0  0  0  0
   -6.3678    2.8233    0.2526 C   0  0  0  0  0  0  0  0  0  0  0  0
   -7.0706    0.1954    1.4401 C   0  0  0  0  0  0  0  0  0  0  0  0
   -5.6317    1.5526   -0.0718 C   0  0  0  0  0  0  0  0  0  0  0  0
   -5.9246    0.3532    0.4669 C   0  0  0  0  0  0  0  0  0  0  0  0
   -4.2628   -0.7562   -0.6405 C   0  0  0  0  0  0  0  0  0  0  0  0
    4.1671   -0.3955   -0.1874 C   0  0  0  0  0  0  0  0  0  0  0  0
   -4.5018    1.6339   -1.0441 C   0  0  0  0  0  0  0  0  0  0  0  0
    4.5973   -0.2032   -1.5019 C   0  0  0  0  0  0  0  0  0  0  0  0
    5.9675    0.8519    0.6537 C   0  0  0  0  0  0  0  0  0  0  0  0
    5.7469    0.5401   -1.7272 C   0  0  0  0  0  0  0  0  0  0  0  0
    6.4572    1.0842   -0.6486 C   0  0  0  0  0  0  0  0  0  0  0  0
    6.6734    1.3929    1.7249 C   0  0  0  0  0  0  0  0  0  0  0  0
    7.6247    1.8415   -0.8433 C   0  0  0  0  0  0  0  0  0  0  0  0
    7.8342    2.1459    1.5316 C   0  0  0  0  0  0  0  0  0  0  0  0
    8.3107    2.3708    0.2461 C   0  0  0  0  0  0  0  0  0  0  0  0
    2.2294   -3.4795    1.3368 H   0  0  0  0  0  0  0  0  0  0  0  0
    1.2689   -2.6229    2.5495 H   0  0  0  0  0  0  0  0  0  0  0  0
    1.5979   -3.2893   -1.0610 H   0  0  0  0  0  0  0  0  0  0  0  0
    0.2444   -2.2512   -1.5317 H   0  0  0  0  0  0  0  0  0  0  0  0
   -0.7609   -3.6435    1.7463 H   0  0  0  0  0  0  0  0  0  0  0  0
    0.1517   -4.5517    0.5372 H   0  0  0  0  0  0  0  0  0  0  0  0
    2.0506   -0.4465    1.7757 H   0  0  0  0  0  0  0  0  0  0  0  0
    3.4233   -1.5248    2.0849 H   0  0  0  0  0  0  0  0  0  0  0  0
    2.3041   -1.2049   -2.0042 H   0  0  0  0  0  0  0  0  0  0  0  0
    1.3520   -0.2340   -0.8829 H   0  0  0  0  0  0  0  0  0  0  0  0
   -1.2493   -3.5580   -1.3000 H   0  0  0  0  0  0  0  0  0  0  0  0
   -2.2047   -4.3422   -0.0812 H   0  0  0  0  0  0  0  0  0  0  0  0
   -1.7074   -1.3226   -0.0432 H   0  0  0  0  0  0  0  0  0  0  0  0
   -2.7343   -2.2294    1.0495 H   0  0  0  0  0  0  0  0  0  0  0  0
   -4.2054   -2.8730   -0.8449 H   0  0  0  0  0  0  0  0  0  0  0  0
   -3.1556   -2.0378   -1.9815 H   0  0  0  0  0  0  0  0  0  0  0  0
   -6.6656    2.7591    2.3921 H   0  0  0  0  0  0  0  0  0  0  0  0
   -7.9728    3.5424    1.5078 H   0  0  0  0  0  0  0  0  0  0  0  0
   -8.6846    1.3468    0.5778 H   0  0  0  0  0  0  0  0  0  0  0  0
   -8.6866    1.3122    2.3397 H   0  0  0  0  0  0  0  0  0  0  0  0
   -6.9749    3.1036   -0.6172 H   0  0  0  0  0  0  0  0  0  0  0  0
   -5.6584    3.6408    0.4277 H   0  0  0  0  0  0  0  0  0  0  0  0
   -7.6418   -0.7098    1.1995 H   0  0  0  0  0  0  0  0  0  0  0  0
   -6.6517    0.0508    2.4442 H   0  0  0  0  0  0  0  0  0  0  0  0
    4.1154   -0.6313   -2.3710 H   0  0  0  0  0  0  0  0  0  0  0  0
    6.0920    0.6860   -2.7483 H   0  0  0  0  0  0  0  0  0  0  0  0
   -3.1444    0.8207   -3.0348 H   0  0  0  0  0  0  0  0  0  0  0  0
   -2.1097    1.0817   -1.7970 H   0  0  0  0  0  0  0  0  0  0  0  0
    6.3207    1.2310    2.7419 H   0  0  0  0  0  0  0  0  0  0  0  0
    8.0063    2.0234   -1.8455 H   0  0  0  0  0  0  0  0  0  0  0  0
    8.3631    2.5551    2.3874 H   0  0  0  0  0  0  0  0  0  0  0  0
    9.2123    2.9555    0.0918 H   0  0  0  0  0  0  0  0  0  0  0  0
  1 24  2  0  0  0  0
  2  8  1  0  0  0  0
  2  9  1  0  0  0  0
  2 10  1  0  0  0  0
  3 11  1  0  0  0  0
  3 12  1  0  0  0  0
  3 23  1  0  0  0  0
  4  7  1  0  0  0  0
  4 22  1  0  0  0  0
  4 24  1  0  0  0  0
  5 21  1  0  0  0  0
  5 22  2  0  0  0  0
  6 23  2  0  0  0  0
  6 26  1  0  0  0  0
  7 59  1  0  0  0  0
  7 60  1  0  0  0  0
  8 11  1  0  0  0  0
  8 33  1  0  0  0  0
  8 34  1  0  0  0  0
  9 12  1  0  0  0  0
  9 35  1  0  0  0  0
  9 36  1  0  0  0  0
 10 13  1  0  0  0  0
 10 37  1  0  0  0  0
 10 38  1  0  0  0  0
 11 39  1  0  0  0  0
 11 40  1  0  0  0  0
 12 41  1  0  0  0  0
 12 42  1  0  0  0  0
 13 14  1  0  0  0  0
 13 43  1  0  0  0  0
 13 44  1  0  0  0  0
 14 15  1  0  0  0  0
 14 45  1  0  0  0  0
 14 46  1  0  0  0  0
 15 22  1  0  0  0  0
 15 47  1  0  0  0  0
 15 48  1  0  0  0  0
 16 17  1  0  0  0  0
 16 18  1  0  0  0  0
 16 49  1  0  0  0  0
 16 50  1  0  0  0  0
 17 19  1  0  0  0  0
 17 51  1  0  0  0  0
 17 52  1  0  0  0  0
 18 20  1  0  0  0  0
 18 53  1  0  0  0  0
 18 54  1  0  0  0  0
 19 21  1  0  0  0  0
 19 55  1  0  0  0  0
 19 56  1  0  0  0  0
 20 21  2  0  0  0  0
 20 24  1  0  0  0  0
 23 25  1  0  0  0  0
 25 27  2  0  0  0  0
 25 57  1  0  0  0  0
 26 28  1  0  0  0  0
 26 29  2  0  0  0  0
 27 28  1  0  0  0  0
 27 58  1  0  0  0  0
 28 30  2  0  0  0  0
 29 31  1  0  0  0  0
 29 61  1  0  0  0  0
 30 32  1  0  0  0  0
 30 62  1  0  0  0  0
 31 32  2  0  0  0  0
 31 63  1  0  0  0  0
 32 64  1  0  0  0  0
M  END
> <PUBCHEM_COMPOUND_CID>
11430418

> <PUBCHEM_CONFORMER_RMSD>
1

> <PUBCHEM_CONFORMER_DIVERSEORDER>
18
60
10
80
214
28
56
158
43
20
157
7
192
120
117
109
216
17
45
238
4
102
178
266
3
273
182
222
107
22
92
262
229
185
91
50
202
170
1
206
245
89
167
70
130
26
119
268
142
153
140
104
24
199
61
233
133
135
5
106
65
196
177
35
239
183
210
37
163
105
250
134
172
23
188
75
265
31
148
59
271
145
193
123
186
195
220
2
19
217
176
162
68
15
114
73
95
194
8
204
122
152
255
6
215
29
203
121
249
218
90
137
82
235
180
257
127
36
264
76
57
40
169
254
67
34
125
207
63
88
118
53
14
242
263
42
141
132
200
156
97
221
253
174
138
224
51
32
248
113
48
197
38
30
175
231
98
78
191
87
161
258
155
164
64
181
44
230
12
99
234
219
225
79
143
46
66
131
198
205
236
129
226
208
49
101
47
171
100
9
16
21
39
227
71
212
201
272
93
115
187
84
85
240
267
269
190
94
211
96
232
259
228
166
33
243
126
124
159
189
58
144
168
184
25
179
116
83
86
41
72
54
128
13
260
149
173
270
139
147
81
251
261
209
52
256
241
247
74
62
165
108
27
146
11
223
55
136
154
69
77
103
237
110
244
112
160
151
111
252
150
213
246

> <PUBCHEM_MMFF94_PARTIAL_CHARGES>
35
1 -0.57
10 0.27
11 0.37
12 0.37
15 0.06
18 0.14
19 0.14
2 -0.81
20 -0.12
21 0.03
22 0.45
23 0.41
24 0.62
25 -0.15
26 0.31
27 -0.15
29 -0.15
3 -0.84
30 -0.15
31 -0.15
32 -0.15
4 -0.11
5 -0.62
57 0.15
58 0.15
59 0.36
6 -0.62
60 0.36
61 0.15
62 0.15
63 0.15
64 0.15
7 -0.73
8 0.27
9 0.27

> <PUBCHEM_EFFECTIVE_ROTOR_COUNT>
8

> <PUBCHEM_PHARMACOPHORE_FEATURES>
9
1 1 acceptor
1 2 cation
1 7 donor
3 3 6 23 cation
6 16 17 18 19 20 21 rings
6 2 3 8 9 11 12 rings
6 26 28 29 30 31 32 rings
6 4 5 20 21 22 24 rings
6 6 23 25 26 27 28 rings

> <PUBCHEM_HEAVY_ATOM_COUNT>
32

> <PUBCHEM_ATOM_DEF_STEREO_COUNT>
0

> <PUBCHEM_ATOM_UDEF_STEREO_COUNT>
0

> <PUBCHEM_BOND_DEF_STEREO_COUNT>
0

> <PUBCHEM_BOND_UDEF_STEREO_COUNT>
0

> <PUBCHEM_ISOTOPIC_ATOM_COUNT>
0

> <PUBCHEM_COMPONENT_COUNT>
1

> <PUBCHEM_CACTVS_TAUTO_COUNT>
1

> <PUBCHEM_CONFORMER_ID>
00AE6A1200000012

> <PUBCHEM_MMFF94_ENERGY>
80.7918

> <PUBCHEM_FEATURE_SELFOVERLAP>
45.728

> <PUBCHEM_SHAPE_FINGERPRINT>
10049733 167 17460612548647874859
10055352 69 17989205963424492825
10280341 67 18271231781669200240
10369192 42 18202567289547407855
10533779 1 18337941321190595981
10930396 42 16950282898196343749
11135609 201 18408601453387517723
11393246 34 8142091965524727863
11475781 23 18130791179244559558
11720765 8 17697325014689441198
12013929 112 11455610908704104689
12124843 1 12103548780871241961
12838863 1 7925625580111787057
12895837 130 18201437029879345175
12975358 362 18189343359958089093
12988421 55 17894900845729552847
13165053 182 17916313912190317680
1361 87 12607107569729626197
13726171 33 18413110546114218163
13782708 43 10953731206200432006
14040222 383 18337668728105182473
14150022 121 18188495808597474099
14394314 77 18411140217062124409
14395042 24 17969515973725187235
14765038 42 18410855451823128997
15150948 74 18409727344593987077
15188451 53 11386370352796380095
15406563 190 17749661875223857973
15519825 34 16081664360965701971
15604295 49 18051969518865431864
15684389 69 18335139805024408371
15803439 3 16415477164088586391
16126227 98 18411703197042756899
16992727 255 18413110589095682224
16993089 31 12902365930545035152
16994733 274 18343581858621156290
18393751 57 18040721321391569323
19302320 297 17894919568029754948
19304671 126 17917159290481089622
19309040 13 18131346371960076711
19438510 23 18334576845331163474
2026 5 11819260157873552992
20691028 202 18410577279444121199
20982279 24 14275108392953242640
21033648 29 18334301980646789302
21307412 95 10807928263786778325
21424621 283 18411138052245334154
21772523 7 15912468265174228312
21774942 28 18341327886313498586
21781055 127 18186803617890112288
25269216 80 16917055703838266415
32027 91 9222928384583316863
406291 66 8646763387859391273
437795 171 17900816055284134765
44249763 50 17916293017559030062
44880568 143 18128822035470921836
474113 269 10665233687636112481
50009960 94 15431185611399407881
5219985 13 18410012121941729527
563151 74 16950561065051212026
5718773 13 7997966864849099187
5776283 40 18201436999909760641
5937810 71 17489599952367807369
6201320 82 18195543704117963100
636775 72 18268706293960252376
6712543 237 14345792704639581425
7808743 9 18408037429344424311
9689198 14 18059862761361092493
9980921 177 18337381653272353306

> <PUBCHEM_SHAPE_MULTIPOLES>
622.79
27.21
3.97
1.76
8.87
1.71
0.07
-30.92
-6.65
-2.48
-0.77
0.4
-0.43
-0.21

> <PUBCHEM_SHAPE_SELFOVERLAP>
1340.927

> <PUBCHEM_SHAPE_VOLUME>
338.9

> <PUBCHEM_COORDINATE_TYPE>
2
5
10

$$$$
