10091430
  -OEChem-03232009363D

 60 63  0     1  0  0  0  0  0999 V2000
   -4.2673   -0.3062   -2.7528 O   0  0  0  0  0  0  0  0  0  0  0  0
   -3.9268   -1.8975    1.6267 O   0  0  0  0  0  0  0  0  0  0  0  0
    6.7068    1.8429   -0.4603 O   0  0  0  0  0  0  0  0  0  0  0  0
   -4.0424   -1.0715   -0.5541 N   0  0  0  0  0  0  0  0  0  0  0  0
    2.0799    0.1956   -0.5096 N   0  0  0  0  0  0  0  0  0  0  0  0
   -6.4850    0.1731    0.0718 C   0  0  0  0  0  0  0  0  0  0  0  0
   -5.8622    1.5164    0.4903 C   0  0  0  0  0  0  0  0  0  0  0  0
   -7.9802    0.4590    0.2893 C   0  0  0  0  0  0  0  0  0  0  0  0
   -6.6861    1.9817    1.6890 C   0  0  0  0  0  0  0  0  0  0  0  0
   -8.0443    1.2935    1.5654 C   0  0  0  0  0  0  0  0  0  0  0  0
   -6.2006   -0.1908   -1.3794 C   0  0  0  0  0  0  0  0  0  0  0  0
   -6.0177   -0.9960    0.9414 C   0  0  0  0  0  0  0  0  0  0  0  0
   -4.7439   -0.5046   -1.6330 C   0  0  0  0  0  0  0  0  0  0  0  0
   -4.5640   -1.3504    0.7231 C   0  0  0  0  0  0  0  0  0  0  0  0
   -2.6403   -1.4184   -0.7609 C   0  0  0  0  0  0  0  0  0  0  0  0
   -1.6979   -0.2788   -0.3874 C   0  0  0  0  0  0  0  0  0  0  0  0
   -0.2255   -0.6300   -0.6242 C   0  0  0  0  0  0  0  0  0  0  0  0
    4.4183    0.9541   -0.4389 C   0  0  2  0  0  0  0  0  0  0  0  0
    0.6848    0.5456   -0.2699 C   0  0  0  0  0  0  0  0  0  0  0  0
    2.9569    1.3156   -0.1984 C   0  0  0  0  0  0  0  0  0  0  0  0
    4.8379   -0.2445    0.4152 C   0  0  0  0  0  0  0  0  0  0  0  0
    5.3451    2.1263   -0.1196 C   0  0  0  0  0  0  0  0  0  0  0  0
    6.3307   -0.4146    0.3907 C   0  0  0  0  0  0  0  0  0  0  0  0
    7.1688    0.6266   -0.0285 C   0  0  0  0  0  0  0  0  0  0  0  0
    6.9022   -1.6210    0.8167 C   0  0  0  0  0  0  0  0  0  0  0  0
    8.5543    0.4476   -0.0582 C   0  0  0  0  0  0  0  0  0  0  0  0
    8.2867   -1.7930    0.7984 C   0  0  0  0  0  0  0  0  0  0  0  0
    9.1117   -0.7608    0.3573 C   0  0  0  0  0  0  0  0  0  0  0  0
   -5.9634    2.2522   -0.3179 H   0  0  0  0  0  0  0  0  0  0  0  0
   -4.7981    1.4522    0.7385 H   0  0  0  0  0  0  0  0  0  0  0  0
   -8.3836    1.0494   -0.5437 H   0  0  0  0  0  0  0  0  0  0  0  0
   -8.5853   -0.4503    0.3682 H   0  0  0  0  0  0  0  0  0  0  0  0
   -6.2015    1.6865    2.6268 H   0  0  0  0  0  0  0  0  0  0  0  0
   -6.7836    3.0720    1.7024 H   0  0  0  0  0  0  0  0  0  0  0  0
   -8.8646    2.0174    1.5258 H   0  0  0  0  0  0  0  0  0  0  0  0
   -8.2183    0.6512    2.4362 H   0  0  0  0  0  0  0  0  0  0  0  0
   -6.7822   -1.0711   -1.6807 H   0  0  0  0  0  0  0  0  0  0  0  0
   -6.4886    0.6325   -2.0446 H   0  0  0  0  0  0  0  0  0  0  0  0
   -6.1499   -0.7767    2.0072 H   0  0  0  0  0  0  0  0  0  0  0  0
   -6.6038   -1.8976    0.7220 H   0  0  0  0  0  0  0  0  0  0  0  0
   -2.4889   -1.6852   -1.8136 H   0  0  0  0  0  0  0  0  0  0  0  0
   -2.3911   -2.3103   -0.1740 H   0  0  0  0  0  0  0  0  0  0  0  0
   -1.9581    0.6135   -0.9709 H   0  0  0  0  0  0  0  0  0  0  0  0
   -1.8445   -0.0114    0.6666 H   0  0  0  0  0  0  0  0  0  0  0  0
   -0.0838   -0.9069   -1.6765 H   0  0  0  0  0  0  0  0  0  0  0  0
    0.0425   -1.5057   -0.0199 H   0  0  0  0  0  0  0  0  0  0  0  0
    4.5606    0.6889   -1.4969 H   0  0  0  0  0  0  0  0  0  0  0  0
    0.5403    0.8070    0.7853 H   0  0  0  0  0  0  0  0  0  0  0  0
    0.4030    1.4163   -0.8745 H   0  0  0  0  0  0  0  0  0  0  0  0
    2.8221    1.6162    0.8484 H   0  0  0  0  0  0  0  0  0  0  0  0
    2.6951    2.1794   -0.8224 H   0  0  0  0  0  0  0  0  0  0  0  0
    4.5264   -0.1042    1.4582 H   0  0  0  0  0  0  0  0  0  0  0  0
    4.3617   -1.1581    0.0396 H   0  0  0  0  0  0  0  0  0  0  0  0
    2.2052   -0.0803   -1.4831 H   0  0  0  0  0  0  0  0  0  0  0  0
    5.2963    2.4086    0.9401 H   0  0  0  0  0  0  0  0  0  0  0  0
    5.0508    3.0070   -0.7013 H   0  0  0  0  0  0  0  0  0  0  0  0
    6.2702   -2.4360    1.1605 H   0  0  0  0  0  0  0  0  0  0  0  0
    9.2058    1.2484   -0.3983 H   0  0  0  0  0  0  0  0  0  0  0  0
    8.7210   -2.7331    1.1259 H   0  0  0  0  0  0  0  0  0  0  0  0
   10.1892   -0.8964    0.3391 H   0  0  0  0  0  0  0  0  0  0  0  0
  1 13  2  0  0  0  0
  2 14  2  0  0  0  0
  3 22  1  0  0  0  0
  3 24  1  0  0  0  0
  4 13  1  0  0  0  0
  4 14  1  0  0  0  0
  4 15  1  0  0  0  0
  5 19  1  0  0  0  0
  5 20  1  0  0  0  0
  5 54  1  0  0  0  0
  6  7  1  0  0  0  0
  6  8  1  0  0  0  0
  6 11  1  0  0  0  0
  6 12  1  0  0  0  0
  7  9  1  0  0  0  0
  7 29  1  0  0  0  0
  7 30  1  0  0  0  0
  8 10  1  0  0  0  0
  8 31  1  0  0  0  0
  8 32  1  0  0  0  0
  9 10  1  0  0  0  0
  9 33  1  0  0  0  0
  9 34  1  0  0  0  0
 10 35  1  0  0  0  0
 10 36  1  0  0  0  0
 11 13  1  0  0  0  0
 11 37  1  0  0  0  0
 11 38  1  0  0  0  0
 12 14  1  0  0  0  0
 12 39  1  0  0  0  0
 12 40  1  0  0  0  0
 15 16  1  0  0  0  0
 15 41  1  0  0  0  0
 15 42  1  0  0  0  0
 16 17  1  0  0  0  0
 16 43  1  0  0  0  0
 16 44  1  0  0  0  0
 17 19  1  0  0  0  0
 17 45  1  0  0  0  0
 17 46  1  0  0  0  0
 18 20  1  0  0  0  0
 18 21  1  0  0  0  0
 18 22  1  0  0  0  0
 18 47  1  0  0  0  0
 19 48  1  0  0  0  0
 19 49  1  0  0  0  0
 20 50  1  0  0  0  0
 20 51  1  0  0  0  0
 21 23  1  0  0  0  0
 21 52  1  0  0  0  0
 21 53  1  0  0  0  0
 22 55  1  0  0  0  0
 22 56  1  0  0  0  0
 23 24  1  0  0  0  0
 23 25  2  0  0  0  0
 24 26  2  0  0  0  0
 25 27  1  0  0  0  0
 25 57  1  0  0  0  0
 26 28  1  0  0  0  0
 26 58  1  0  0  0  0
 27 28  2  0  0  0  0
 27 59  1  0  0  0  0
 28 60  1  0  0  0  0
M  END
> <PUBCHEM_COMPOUND_CID>
10091430

> <PUBCHEM_CONFORMER_RMSD>
1.2

> <PUBCHEM_CONFORMER_DIVERSEORDER>
1
137
4
143
74
129
102
157
118
37
36
123
6
32
43
42
2
141
9
176
90
160
73
64
29
84
130
63
140
145
106
12
83
35
93
41
133
16
45
7
57
178
121
65
128
3
115
50
138
119
95
54
101
108
67
21
46
19
13
162
79
27
81
97
113
5
182
11
174
47
94
166
33
30
109
26
34
156
60
15
85
69
24
87
136
31
126
117
25
161
61
125
40
173
135
28
71
114
72
92
112
80
159
8
98
52
22
163
155
48
76
56
99
55
132
17
124
68
44
75
91
142
180
10
20
38
70
134
23
184
151
149
100
172
127
88
168
62
120
53
49
152
177
122
153
66
18
183
110
164
103
181
111
86
14
146
170
158
131
39
154
147
139
96
77
167
104
105
175
144
58
169
150
59
89
51
179
116
171
165
148
107
82
78

> <PUBCHEM_MMFF94_PARTIAL_CHARGES>
25
1 -0.57
11 0.06
12 0.06
13 0.57
14 0.57
15 0.3
19 0.27
2 -0.57
20 0.27
21 0.14
22 0.28
23 -0.14
24 0.08
25 -0.15
26 -0.15
27 -0.15
28 -0.15
3 -0.36
4 -0.42
5 -0.9
54 0.36
57 0.15
58 0.15
59 0.15
60 0.15

> <PUBCHEM_EFFECTIVE_ROTOR_COUNT>
9.2

> <PUBCHEM_PHARMACOPHORE_FEATURES>
9
1 1 acceptor
1 2 acceptor
1 3 acceptor
1 5 cation
1 5 donor
5 6 7 8 9 10 rings
6 23 24 25 26 27 28 rings
6 3 18 21 22 23 24 rings
6 4 6 11 12 13 14 rings

> <PUBCHEM_HEAVY_ATOM_COUNT>
28

> <PUBCHEM_ATOM_DEF_STEREO_COUNT>
0

> <PUBCHEM_ATOM_UDEF_STEREO_COUNT>
1

> <PUBCHEM_BOND_DEF_STEREO_COUNT>
0

> <PUBCHEM_BOND_UDEF_STEREO_COUNT>
0

> <PUBCHEM_ISOTOPIC_ATOM_COUNT>
0

> <PUBCHEM_COMPONENT_COUNT>
1

> <PUBCHEM_CACTVS_TAUTO_COUNT>
1

> <PUBCHEM_CONFORMER_ID>
0099FBA600000001

> <PUBCHEM_MMFF94_ENERGY>
57.6673

> <PUBCHEM_FEATURE_SELFOVERLAP>
45.709

> <PUBCHEM_SHAPE_FINGERPRINT>
100830 39 18336827507274206061
10299344 5 18410009940582730078
10533779 1 17344640232584652545
10917259 128 16987723381137894233
11135926 11 18334288751994458975
11181472 205 18131362890905345584
11315181 36 18409728500292805639
12082328 90 18343581871844005687
12144603 126 18341615949854905324
1361 4 12540682713336541776
13885169 127 18113616768241449132
13914758 101 17917713491506922858
14251764 18 18413670210533727868
14347424 109 18341891918577982424
14429380 56 11599997752918034946
14444916 359 17312824861678030019
1454969 45 8502654809437347928
14933364 13 17676202498317205444
15183329 4 18334566949926381814
15352257 5 17458060474088940194
15419008 47 16805597075521243332
15461852 350 16773793731741530133
1577012 14 18131069385376735268
15979999 66 9079113341132857979
17093844 174 16128653076762971535
20105231 36 16370727023916208970
21150785 3 8790884081819115002
21756936 100 18201721761232537279
23081809 10 18201432644649014916
23389318 12 8862937269141573664
246663 6 15863791694603530322
4073 2 17749674120834150762
439807 62 18113335294240522210
44389302 135 18059566942603245126
445580 167 9871745784806466626
45377200 153 13984673542050753560
4874694 18 14333407844023658684
5381727 24 18202282525058368927
6126387 218 17632290173363327232
6201320 215 17774442659927280665
636775 8 13118293568298917689
999808 66 17022904549407988741

> <PUBCHEM_SHAPE_MULTIPOLES>
548.66
34.13
1.89
1.45
29.24
0.39
-0.35
2.65
8.65
0.24
0.5
-3.06
-0.23
-2.86

> <PUBCHEM_SHAPE_SELFOVERLAP>
1156.276

> <PUBCHEM_SHAPE_VOLUME>
308.3

> <PUBCHEM_COORDINATE_TYPE>
2
5
10

$$$$
