44461606
  -OEChem-03232009313D

 47 50  0     1  0  0  0  0  0999 V2000
    1.2147   -0.6870    0.2234 O   0  0  0  0  0  0  0  0  0  0  0  0
   -0.1523   -0.5260    0.5185 N   0  0  3  0  0  0  0  0  0  0  0  0
    5.4547   -0.2400   -0.1276 N   0  0  0  0  0  0  0  0  0  0  0  0
   -0.4185    0.7351    1.2096 C   0  0  1  0  0  0  0  0  0  0  0  0
    0.9888    1.2383    1.5104 C   0  0  0  0  0  0  0  0  0  0  0  0
    1.7884    0.6172    0.3848 C   0  0  1  0  0  0  0  0  0  0  0  0
   -1.3276    1.6084    0.3682 C   0  0  0  0  0  0  0  0  0  0  0  0
    3.2655    0.4875    0.7058 C   0  0  0  0  0  0  0  0  0  0  0  0
   -1.0907   -1.5086    0.1918 C   0  0  0  0  0  0  0  0  0  0  0  0
   -2.6654    1.1885    0.1975 C   0  0  0  0  0  0  0  0  0  0  0  0
   -3.1477   -0.0845    0.8542 C   0  0  0  0  0  0  0  0  0  0  0  0
   -2.4923   -1.3457    0.3248 C   0  0  0  0  0  0  0  0  0  0  0  0
    4.0434   -0.1055   -0.4680 C   0  0  0  0  0  0  0  0  0  0  0  0
   -0.9080    2.7872   -0.2645 C   0  0  0  0  0  0  0  0  0  0  0  0
   -0.6277   -2.7406   -0.3251 C   0  0  0  0  0  0  0  0  0  0  0  0
   -3.5453    1.9487   -0.5878 C   0  0  0  0  0  0  0  0  0  0  0  0
   -3.3550   -2.4071   -0.0257 C   0  0  0  0  0  0  0  0  0  0  0  0
   -1.7933    3.5372   -1.0419 C   0  0  0  0  0  0  0  0  0  0  0  0
   -3.1099    3.1193   -1.2032 C   0  0  0  0  0  0  0  0  0  0  0  0
   -1.4961   -3.7754   -0.6768 C   0  0  0  0  0  0  0  0  0  0  0  0
   -2.8625   -3.6096   -0.5235 C   0  0  0  0  0  0  0  0  0  0  0  0
    6.1499    1.0372   -0.2968 C   0  0  0  0  0  0  0  0  0  0  0  0
    6.0868   -1.2745   -0.9483 C   0  0  0  0  0  0  0  0  0  0  0  0
   -0.8985    0.5598    2.1808 H   0  0  0  0  0  0  0  0  0  0  0  0
    1.1024    2.3216    1.5956 H   0  0  0  0  0  0  0  0  0  0  0  0
    1.3128    0.8054    2.4671 H   0  0  0  0  0  0  0  0  0  0  0  0
    1.6494    1.1708   -0.5522 H   0  0  0  0  0  0  0  0  0  0  0  0
    3.3990   -0.1616    1.5814 H   0  0  0  0  0  0  0  0  0  0  0  0
    3.6539    1.4778    0.9681 H   0  0  0  0  0  0  0  0  0  0  0  0
   -3.0047   -0.0292    1.9406 H   0  0  0  0  0  0  0  0  0  0  0  0
   -4.2362   -0.1511    0.7238 H   0  0  0  0  0  0  0  0  0  0  0  0
    3.8977    0.4879   -1.3801 H   0  0  0  0  0  0  0  0  0  0  0  0
    3.6181   -1.0966   -0.6748 H   0  0  0  0  0  0  0  0  0  0  0  0
    0.1131    3.1449   -0.1765 H   0  0  0  0  0  0  0  0  0  0  0  0
    0.4384   -2.9179   -0.4567 H   0  0  0  0  0  0  0  0  0  0  0  0
   -4.5758    1.6318   -0.7264 H   0  0  0  0  0  0  0  0  0  0  0  0
   -4.4319   -2.2980    0.0852 H   0  0  0  0  0  0  0  0  0  0  0  0
   -1.4505    4.4478   -1.5251 H   0  0  0  0  0  0  0  0  0  0  0  0
   -3.7959    3.7028   -1.8098 H   0  0  0  0  0  0  0  0  0  0  0  0
   -1.0994   -4.7083   -1.0662 H   0  0  0  0  0  0  0  0  0  0  0  0
   -3.5451   -4.4104   -0.7906 H   0  0  0  0  0  0  0  0  0  0  0  0
    7.2068    0.9326   -0.0253 H   0  0  0  0  0  0  0  0  0  0  0  0
    6.1006    1.4034   -1.3289 H   0  0  0  0  0  0  0  0  0  0  0  0
    5.7439    1.8097    0.3635 H   0  0  0  0  0  0  0  0  0  0  0  0
    6.0262   -1.0462   -2.0187 H   0  0  0  0  0  0  0  0  0  0  0  0
    7.1428   -1.3882   -0.6787 H   0  0  0  0  0  0  0  0  0  0  0  0
    5.6157   -2.2483   -0.7739 H   0  0  0  0  0  0  0  0  0  0  0  0
  1  2  1  0  0  0  0
  1  6  1  0  0  0  0
  2  4  1  0  0  0  0
  2  9  1  0  0  0  0
  3 13  1  0  0  0  0
  3 22  1  0  0  0  0
  3 23  1  0  0  0  0
  4  5  1  0  0  0  0
  4  7  1  0  0  0  0
  4 24  1  0  0  0  0
  5  6  1  0  0  0  0
  5 25  1  0  0  0  0
  5 26  1  0  0  0  0
  6  8  1  0  0  0  0
  6 27  1  0  0  0  0
  7 10  1  0  0  0  0
  7 14  2  0  0  0  0
  8 13  1  0  0  0  0
  8 28  1  0  0  0  0
  8 29  1  0  0  0  0
  9 12  1  0  0  0  0
  9 15  2  0  0  0  0
 10 11  1  0  0  0  0
 10 16  2  0  0  0  0
 11 12  1  0  0  0  0
 11 30  1  0  0  0  0
 11 31  1  0  0  0  0
 12 17  2  0  0  0  0
 13 32  1  0  0  0  0
 13 33  1  0  0  0  0
 14 18  1  0  0  0  0
 14 34  1  0  0  0  0
 15 20  1  0  0  0  0
 15 35  1  0  0  0  0
 16 19  1  0  0  0  0
 16 36  1  0  0  0  0
 17 21  1  0  0  0  0
 17 37  1  0  0  0  0
 18 19  2  0  0  0  0
 18 38  1  0  0  0  0
 19 39  1  0  0  0  0
 20 21  2  0  0  0  0
 20 40  1  0  0  0  0
 21 41  1  0  0  0  0
 22 42  1  0  0  0  0
 22 43  1  0  0  0  0
 22 44  1  0  0  0  0
 23 45  1  0  0  0  0
 23 46  1  0  0  0  0
 23 47  1  0  0  0  0
M  END
> <PUBCHEM_COMPOUND_CID>
44461606

> <PUBCHEM_CONFORMER_RMSD>
0.6

> <PUBCHEM_CONFORMER_DIVERSEORDER>
1
22
58
30
79
7
72
74
38
55
41
26
12
18
71
69
5
17
2
46
61
14
39
63
64
42
45
37
15
28
43
3
53
66
60
59
23
44
21
8
65
67
25
54
20
11
33
52
75
68
6
29
34
24
27
83
50
56
4
19
35
81
48
32
9
31
76
82
10
78
51
49
73
70
80
36
47
77
16
40
57
13
62

> <PUBCHEM_MMFF94_PARTIAL_CHARGES>
29
1 -0.26
10 -0.14
11 0.29
12 -0.14
13 0.27
14 -0.15
15 -0.15
16 -0.15
17 -0.15
18 -0.15
19 -0.15
2 -0.49
20 -0.15
21 -0.15
22 0.27
23 0.27
3 -0.81
34 0.15
35 0.15
36 0.15
37 0.15
38 0.15
39 0.15
4 0.51
40 0.15
41 0.15
6 0.28
7 -0.14
9 0.1

> <PUBCHEM_EFFECTIVE_ROTOR_COUNT>
3.8

> <PUBCHEM_PHARMACOPHORE_FEATURES>
5
1 3 cation
5 1 2 4 5 6 rings
6 7 10 14 16 18 19 rings
6 9 12 15 17 20 21 rings
7 2 4 7 9 10 11 12 rings

> <PUBCHEM_HEAVY_ATOM_COUNT>
23

> <PUBCHEM_ATOM_DEF_STEREO_COUNT>
0

> <PUBCHEM_ATOM_UDEF_STEREO_COUNT>
2

> <PUBCHEM_BOND_DEF_STEREO_COUNT>
0

> <PUBCHEM_BOND_UDEF_STEREO_COUNT>
0

> <PUBCHEM_ISOTOPIC_ATOM_COUNT>
0

> <PUBCHEM_COMPONENT_COUNT>
1

> <PUBCHEM_CACTVS_TAUTO_COUNT>
1

> <PUBCHEM_CONFORMER_ID>
02A66E2600000001

> <PUBCHEM_MMFF94_ENERGY>
75.614

> <PUBCHEM_FEATURE_SELFOVERLAP>
25.436

> <PUBCHEM_SHAPE_FINGERPRINT>
10165383 225 18270408174804157145
10411042 1 18049161365265777971
105312 117 18262514767426194396
12403259 226 18128251392476913858
12553582 1 18191574466312893419
12643181 29 18196658394259987462
12788726 201 18188198892400541746
13257819 37 18189606164779704421
14022347 108 17901084632536767971
14251751 93 18333450919959886906
14251757 5 18411981351893449858
14508225 48 18124021584472477623
14713325 29 18334301941912520915
14790565 3 17910968936774485112
14910302 57 18342731966482603224
14955137 171 18046077209854485275
15042514 8 18338242668970020203
15230672 131 18120379757766163974
15463212 79 18186796959546052618
16752209 62 18338499898560848530
167882 2 17831857949926992443
17357779 13 18055612152909390287
17492 54 18116407316601014341
17539 30 18339631351960326255
1813 80 18122073266657764535
19958102 18 18338798910316316414
20101258 96 18117009985488738499
20693207 138 18131071588768973480
20775438 99 17550903360392132061
22393880 68 18410294680093587162
22907989 373 18261658329577965533
23227448 37 18410012152459772044
23419403 2 17416390164063655137
23559900 14 18202281382464738208
238 59 16817950943668807189
255183 451 17692815208486037959
2748010 2 18338801088122886107
3298306 158 18199183980393914886
335352 9 18271246153088610671
44062 13 18411421683606597350
4409770 3 18409725141016476343
497634 4 17916324873342033672
531348 171 18262522486120780306
559249 180 18262516971535922130
57262259 84 18339356478411620527
59755656 520 18129109926369345193
633830 44 17023198111055594888
7164475 11 18264489666878105620
7237137 82 18339369660019874716
81228 2 18121768689510606443

> <PUBCHEM_SHAPE_MULTIPOLES>
457.5
9.79
4.59
1.09
23.29
1.47
-0.09
0.55
2.74
-6.5
1.97
-0.06
-0.42
1

> <PUBCHEM_SHAPE_SELFOVERLAP>
987.055

> <PUBCHEM_SHAPE_VOLUME>
251.6

> <PUBCHEM_COORDINATE_TYPE>
2
5
10

$$$$
