54576142
  -OEChem-03242009303D

 62 65  0     0  0  0  0  0  0999 V2000
    4.3667    2.5285    0.7442 Cl  0  0  0  0  0  0  0  0  0  0  0  0
    6.9636    4.3420    0.2237 Cl  0  0  0  0  0  0  0  0  0  0  0  0
   -2.5542   -2.6558   -1.6826 O   0  0  0  0  0  0  0  0  0  0  0  0
    2.6314   -2.2180    0.3011 N   0  0  0  0  0  0  0  0  0  0  0  0
    4.7853   -0.3579    0.0556 N   0  0  0  0  0  0  0  0  0  0  0  0
   -1.6468   -2.9733    0.4285 N   0  0  0  0  0  0  0  0  0  0  0  0
   -4.8253    0.3120    0.2356 N   0  0  0  0  0  0  0  0  0  0  0  0
   -3.3383   -0.8995    1.3549 N   0  0  0  0  0  0  0  0  0  0  0  0
    3.5024   -1.9338    1.4480 C   0  0  0  0  0  0  0  0  0  0  0  0
    2.4804   -1.0117   -0.5222 C   0  0  0  0  0  0  0  0  0  0  0  0
    3.8351   -0.5339   -1.0498 C   0  0  0  0  0  0  0  0  0  0  0  0
    4.8914   -1.4857    0.9866 C   0  0  0  0  0  0  0  0  0  0  0  0
    1.3259   -2.6964    0.7542 C   0  0  0  0  0  0  0  0  0  0  0  0
    0.6331   -3.4799   -0.3620 C   0  0  0  0  0  0  0  0  0  0  0  0
    5.8894    0.4762   -0.1528 C   0  0  0  0  0  0  0  0  0  0  0  0
   -0.7293   -4.0183    0.0657 C   0  0  0  0  0  0  0  0  0  0  0  0
    5.8367    1.8422    0.1239 C   0  0  0  0  0  0  0  0  0  0  0  0
    7.0631   -0.0899   -0.6509 C   0  0  0  0  0  0  0  0  0  0  0  0
    6.9575    2.6424   -0.0975 C   0  0  0  0  0  0  0  0  0  0  0  0
    8.1839    0.7103   -0.8722 C   0  0  0  0  0  0  0  0  0  0  0  0
   -2.4972   -2.3684   -0.4899 C   0  0  0  0  0  0  0  0  0  0  0  0
   -3.3665   -1.2857    0.0383 C   0  0  0  0  0  0  0  0  0  0  0  0
    8.1311    2.0765   -0.5955 C   0  0  0  0  0  0  0  0  0  0  0  0
   -4.2813   -0.5484   -0.6759 C   0  0  0  0  0  0  0  0  0  0  0  0
   -4.2282    0.0642    1.4403 C   0  0  0  0  0  0  0  0  0  0  0  0
   -5.8099    1.2679   -0.0180 C   0  0  0  0  0  0  0  0  0  0  0  0
   -4.6715   -0.5873   -2.0990 C   0  0  0  0  0  0  0  0  0  0  0  0
   -4.5705    0.8117    2.6697 C   0  0  0  0  0  0  0  0  0  0  0  0
   -7.0570    0.8728   -0.5020 C   0  0  0  0  0  0  0  0  0  0  0  0
   -5.5476    2.6180    0.2140 C   0  0  0  0  0  0  0  0  0  0  0  0
   -8.0419    1.8279   -0.7541 C   0  0  0  0  0  0  0  0  0  0  0  0
   -6.5323    3.5732   -0.0380 C   0  0  0  0  0  0  0  0  0  0  0  0
   -7.7795    3.1781   -0.5221 C   0  0  0  0  0  0  0  0  0  0  0  0
    1.8411   -1.1992   -1.3909 H   0  0  0  0  0  0  0  0  0  0  0  0
    2.0117   -0.2037    0.0562 H   0  0  0  0  0  0  0  0  0  0  0  0
    3.0588   -1.1586    2.0875 H   0  0  0  0  0  0  0  0  0  0  0  0
    3.6254   -2.8338    2.0627 H   0  0  0  0  0  0  0  0  0  0  0  0
    5.4777   -1.1970    1.8677 H   0  0  0  0  0  0  0  0  0  0  0  0
    5.4109   -2.3214    0.5009 H   0  0  0  0  0  0  0  0  0  0  0  0
    4.2400   -1.2604   -1.7660 H   0  0  0  0  0  0  0  0  0  0  0  0
    3.6885    0.4099   -1.5894 H   0  0  0  0  0  0  0  0  0  0  0  0
    0.7033   -1.8699    1.1189 H   0  0  0  0  0  0  0  0  0  0  0  0
    1.4529   -3.3871    1.5985 H   0  0  0  0  0  0  0  0  0  0  0  0
    0.4904   -2.8539   -1.2497 H   0  0  0  0  0  0  0  0  0  0  0  0
    1.2645   -4.3245   -0.6653 H   0  0  0  0  0  0  0  0  0  0  0  0
   -0.6237   -4.6754    0.9356 H   0  0  0  0  0  0  0  0  0  0  0  0
   -1.1621   -4.6102   -0.7483 H   0  0  0  0  0  0  0  0  0  0  0  0
    7.1224   -1.1510   -0.8796 H   0  0  0  0  0  0  0  0  0  0  0  0
   -1.6627   -2.6631    1.3960 H   0  0  0  0  0  0  0  0  0  0  0  0
    9.0972    0.2699   -1.2614 H   0  0  0  0  0  0  0  0  0  0  0  0
    9.0143    2.6847   -0.7745 H   0  0  0  0  0  0  0  0  0  0  0  0
   -5.4445   -1.3447   -2.2632 H   0  0  0  0  0  0  0  0  0  0  0  0
   -5.0472    0.3743   -2.4617 H   0  0  0  0  0  0  0  0  0  0  0  0
   -3.8184   -0.8297   -2.7396 H   0  0  0  0  0  0  0  0  0  0  0  0
   -4.1098    1.8038    2.6681 H   0  0  0  0  0  0  0  0  0  0  0  0
   -5.6522    0.9167    2.7979 H   0  0  0  0  0  0  0  0  0  0  0  0
   -4.1922    0.2784    3.5486 H   0  0  0  0  0  0  0  0  0  0  0  0
   -7.2861   -0.1754   -0.6780 H   0  0  0  0  0  0  0  0  0  0  0  0
   -4.5771    2.9505    0.5736 H   0  0  0  0  0  0  0  0  0  0  0  0
   -9.0138    1.5203   -1.1285 H   0  0  0  0  0  0  0  0  0  0  0  0
   -6.3269    4.6249    0.1387 H   0  0  0  0  0  0  0  0  0  0  0  0
   -8.5461    3.9219   -0.7187 H   0  0  0  0  0  0  0  0  0  0  0  0
  1 17  1  0  0  0  0
  2 19  1  0  0  0  0
  3 21  2  0  0  0  0
  4  9  1  0  0  0  0
  4 10  1  0  0  0  0
  4 13  1  0  0  0  0
  5 11  1  0  0  0  0
  5 12  1  0  0  0  0
  5 15  1  0  0  0  0
  6 16  1  0  0  0  0
  6 21  1  0  0  0  0
  6 49  1  0  0  0  0
  7 24  1  0  0  0  0
  7 25  1  0  0  0  0
  7 26  1  0  0  0  0
  8 22  1  0  0  0  0
  8 25  2  0  0  0  0
  9 12  1  0  0  0  0
  9 36  1  0  0  0  0
  9 37  1  0  0  0  0
 10 11  1  0  0  0  0
 10 34  1  0  0  0  0
 10 35  1  0  0  0  0
 11 40  1  0  0  0  0
 11 41  1  0  0  0  0
 12 38  1  0  0  0  0
 12 39  1  0  0  0  0
 13 14  1  0  0  0  0
 13 42  1  0  0  0  0
 13 43  1  0  0  0  0
 14 16  1  0  0  0  0
 14 44  1  0  0  0  0
 14 45  1  0  0  0  0
 15 17  2  0  0  0  0
 15 18  1  0  0  0  0
 16 46  1  0  0  0  0
 16 47  1  0  0  0  0
 17 19  1  0  0  0  0
 18 20  2  0  0  0  0
 18 48  1  0  0  0  0
 19 23  2  0  0  0  0
 20 23  1  0  0  0  0
 20 50  1  0  0  0  0
 21 22  1  0  0  0  0
 22 24  2  0  0  0  0
 23 51  1  0  0  0  0
 24 27  1  0  0  0  0
 25 28  1  0  0  0  0
 26 29  2  0  0  0  0
 26 30  1  0  0  0  0
 27 52  1  0  0  0  0
 27 53  1  0  0  0  0
 27 54  1  0  0  0  0
 28 55  1  0  0  0  0
 28 56  1  0  0  0  0
 28 57  1  0  0  0  0
 29 31  1  0  0  0  0
 29 58  1  0  0  0  0
 30 32  2  0  0  0  0
 30 59  1  0  0  0  0
 31 33  2  0  0  0  0
 31 60  1  0  0  0  0
 32 33  1  0  0  0  0
 32 61  1  0  0  0  0
 33 62  1  0  0  0  0
M  END
> <PUBCHEM_COMPOUND_CID>
54576142

> <PUBCHEM_CONFORMER_RMSD>
1.2

> <PUBCHEM_CONFORMER_DIVERSEORDER>
1
38
102
20
111
33
18
121
96
101
88
3
114
31
107
5
105
98
77
58
67
122
12
108
69
23
116
82
109
10
113
42
92
49
71
17
66
52
57
124
40
118
53
44
119
83
97
74
103
94
87
128
89
28
81
60
37
80
100
79
51
45
11
95
129
27
115
127
34
36
46
110
85
93
126
99
86
14
123
39
8
117
91
48
56
65
54
125
50
75
76
9
63
72
41
120
59
7
25
106
32
15
112
70
104
47
22
62
68
64
13
43
21
78
30
24
61
16
90
73
26
2
84
29
55
19
6
35
4

> <PUBCHEM_MMFF94_PARTIAL_CHARGES>
41
1 -0.18
10 0.27
11 0.37
12 0.37
13 0.27
15 0.1
16 0.3
17 0.18
18 -0.15
19 0.18
2 -0.18
20 -0.15
21 0.72
22 0.14
23 -0.15
24 -0.33
25 0.01
26 -0.02
27 0.18
28 0.18
29 -0.15
3 -0.57
30 -0.15
31 -0.15
32 -0.15
33 -0.15
4 -0.81
48 0.15
49 0.37
5 -0.84
50 0.15
51 0.15
58 0.15
59 0.15
6 -0.73
60 0.15
61 0.15
62 0.15
7 0.33
8 -0.57
9 0.27

> <PUBCHEM_EFFECTIVE_ROTOR_COUNT>
9.2

> <PUBCHEM_PHARMACOPHORE_FEATURES>
9
1 3 acceptor
1 4 cation
1 5 cation
1 6 donor
3 7 8 25 cation
5 7 8 22 24 25 rings
6 15 17 18 19 20 23 rings
6 26 29 30 31 32 33 rings
6 4 5 9 10 11 12 rings

> <PUBCHEM_HEAVY_ATOM_COUNT>
33

> <PUBCHEM_ATOM_DEF_STEREO_COUNT>
0

> <PUBCHEM_ATOM_UDEF_STEREO_COUNT>
0

> <PUBCHEM_BOND_DEF_STEREO_COUNT>
0

> <PUBCHEM_BOND_UDEF_STEREO_COUNT>
0

> <PUBCHEM_ISOTOPIC_ATOM_COUNT>
0

> <PUBCHEM_COMPONENT_COUNT>
1

> <PUBCHEM_CACTVS_TAUTO_COUNT>
2

> <PUBCHEM_CONFORMER_ID>
0340C40E00000001

> <PUBCHEM_MMFF94_ENERGY>
97.8528

> <PUBCHEM_FEATURE_SELFOVERLAP>
45.675

> <PUBCHEM_SHAPE_FINGERPRINT>
10055352 69 18412828019355848771
10280341 67 18200301252175989288
10533779 1 18337379487533032796
10864689 126 18343301479346831368
10908659 184 13623537826746590345
10917259 69 18409449203255066444
10930396 42 16081089269403744877
10939801 23 18334858294464223500
11476731 99 18127965520140287424
11578821 258 18120931712798824397
1200032 147 18113898247829768650
12124843 1 17917428756792816828
12895837 130 18342735239358563367
13248334 5 18049158865352874707
13782708 43 9438866954015048086
13944108 23 18268990886982596802
14359421 15 12679461950503694029
14394314 77 18407760322539332189
14664723 55 18272940401073419056
14931854 50 17632294540981265331
15064981 113 17060341777804064910
15064981 194 17846497063273713203
15131766 46 18337660933272472119
15145344 64 18340774827164800400
15276724 80 18187921712507437661
15347591 1 18408604751279732258
15439362 3 18339645547255709310
15685185 35 18410292532377726877
15803439 3 16917067763025811398
16112460 7 18410292493137549604
16758388 162 18188763951937207834
18393751 57 17968658212578631651
19053607 189 18341601586450254043
19438510 23 18113337509283494379
2026 5 11815904439879756500
20691028 202 18334576880017370886
21033648 29 17022907843458553226
21298829 104 18335703819295983669
21647283 7 18113341894523783258
22122407 14 18191030006594049563
23516275 100 18261955129046435885
23569943 247 9727337053777410133
25269216 80 17560788979828734919
270888 7 18409448068218350303
2748736 6 18410285926327615946
3918712 181 18339077090926815205
393628 194 18335983150883885253
406291 66 10159696889273654604
4144715 1 18119257409765489986
4169191 19 18338515240922650741
4258327 124 18342735200962436911
4366758 26 18339928104226425209
5080951 261 16515687771865104099
54583773 228 18411971461623004391
5718773 13 9727628406223754951
5874358 3 14045194992150599438
6036956 94 18340774736943561273
6327066 14 18411138030464594551
6712543 237 15285359505346152587

> <PUBCHEM_SHAPE_MULTIPOLES>
652.09
27.98
5.2
1.44
8.36
0.41
0.4
33.69
-4.79
0.53
0.09
-1.61
-0.28
-0.48

> <PUBCHEM_SHAPE_SELFOVERLAP>
1373.909

> <PUBCHEM_SHAPE_VOLUME>
368.6

> <PUBCHEM_COORDINATE_TYPE>
2
5
10

$$$$
