10409556
  -OEChem-03232009363D

 64 67  0     1  0  0  0  0  0999 V2000
   -2.7169    0.3762   -2.4763 O   0  0  0  0  0  0  0  0  0  0  0  0
   -4.8119    1.9668    1.3849 O   0  0  0  0  0  0  0  0  0  0  0  0
    5.7526    0.9822    0.1569 O   0  0  0  0  0  0  0  0  0  0  0  0
    2.1653   -2.2565   -0.1814 O   0  0  0  0  0  0  0  0  0  0  0  0
   -3.7088    1.1957   -0.5279 N   0  0  0  0  0  0  0  0  0  0  0  0
    1.2394    2.9082   -0.0556 N   0  0  0  0  0  0  0  0  0  0  0  0
   -4.4151   -1.4300    0.1889 C   0  0  0  0  0  0  0  0  0  0  0  0
   -5.1598   -2.7671    0.3387 C   0  0  0  0  0  0  0  0  0  0  0  0
   -3.1458   -1.7033    1.0142 C   0  0  0  0  0  0  0  0  0  0  0  0
   -4.0737   -3.8371    0.2710 C   0  0  0  0  0  0  0  0  0  0  0  0
   -2.7807   -3.1558    0.7154 C   0  0  0  0  0  0  0  0  0  0  0  0
   -4.1158   -1.1304   -1.2815 C   0  0  0  0  0  0  0  0  0  0  0  0
   -5.2448   -0.2749    0.7338 C   0  0  0  0  0  0  0  0  0  0  0  0
   -3.4304    0.2021   -1.4851 C   0  0  0  0  0  0  0  0  0  0  0  0
   -4.5600    1.0640    0.5836 C   0  0  0  0  0  0  0  0  0  0  0  0
   -3.0477    2.4805   -0.7307 C   0  0  0  0  0  0  0  0  0  0  0  0
   -1.6825    2.5456   -0.0537 C   0  0  0  0  0  0  0  0  0  0  0  0
   -0.9939    3.9010   -0.2445 C   0  0  0  0  0  0  0  0  0  0  0  0
    3.4650    1.8680    0.0611 C   0  0  2  0  0  0  0  0  0  0  0  0
    0.3546    3.9394    0.4736 C   0  0  0  0  0  0  0  0  0  0  0  0
    2.5370    2.9490    0.6038 C   0  0  0  0  0  0  0  0  0  0  0  0
    2.8631    0.4746    0.2572 C   0  0  0  0  0  0  0  0  0  0  0  0
    4.8310    1.9075    0.7446 C   0  0  0  0  0  0  0  0  0  0  0  0
    3.8904   -0.5879   -0.0141 C   0  0  0  0  0  0  0  0  0  0  0  0
    5.2570   -0.2812   -0.0374 C   0  0  0  0  0  0  0  0  0  0  0  0
    3.4850   -1.9131   -0.2220 C   0  0  0  0  0  0  0  0  0  0  0  0
    6.1987   -1.2783   -0.3046 C   0  0  0  0  0  0  0  0  0  0  0  0
    4.4279   -2.9096   -0.4760 C   0  0  0  0  0  0  0  0  0  0  0  0
    5.7836   -2.5915   -0.5215 C   0  0  0  0  0  0  0  0  0  0  0  0
    1.6372   -2.6444    1.0844 C   0  0  0  0  0  0  0  0  0  0  0  0
   -5.6554   -2.8233    1.3166 H   0  0  0  0  0  0  0  0  0  0  0  0
   -5.9282   -2.9199   -0.4263 H   0  0  0  0  0  0  0  0  0  0  0  0
   -2.3150   -1.0286    0.7849 H   0  0  0  0  0  0  0  0  0  0  0  0
   -3.3587   -1.6035    2.0864 H   0  0  0  0  0  0  0  0  0  0  0  0
   -4.3204   -4.6942    0.9057 H   0  0  0  0  0  0  0  0  0  0  0  0
   -3.9659   -4.2108   -0.7537 H   0  0  0  0  0  0  0  0  0  0  0  0
   -2.0359   -3.2078   -0.0870 H   0  0  0  0  0  0  0  0  0  0  0  0
   -2.3462   -3.6431    1.5943 H   0  0  0  0  0  0  0  0  0  0  0  0
   -5.0441   -1.1059   -1.8664 H   0  0  0  0  0  0  0  0  0  0  0  0
   -3.4765   -1.9037   -1.7229 H   0  0  0  0  0  0  0  0  0  0  0  0
   -5.4593   -0.4261    1.7990 H   0  0  0  0  0  0  0  0  0  0  0  0
   -6.2089   -0.2095    0.2139 H   0  0  0  0  0  0  0  0  0  0  0  0
   -3.6874    3.2788   -0.3359 H   0  0  0  0  0  0  0  0  0  0  0  0
   -2.9363    2.6720   -1.8046 H   0  0  0  0  0  0  0  0  0  0  0  0
   -1.7993    2.3439    1.0188 H   0  0  0  0  0  0  0  0  0  0  0  0
   -1.0562    1.7386   -0.4526 H   0  0  0  0  0  0  0  0  0  0  0  0
   -1.6331    4.6978    0.1541 H   0  0  0  0  0  0  0  0  0  0  0  0
   -0.8583    4.1028   -1.3143 H   0  0  0  0  0  0  0  0  0  0  0  0
    3.6211    2.0265   -1.0161 H   0  0  0  0  0  0  0  0  0  0  0  0
    0.1968    3.7917    1.5488 H   0  0  0  0  0  0  0  0  0  0  0  0
    0.7976    4.9326    0.3333 H   0  0  0  0  0  0  0  0  0  0  0  0
    3.0029    3.9305    0.4500 H   0  0  0  0  0  0  0  0  0  0  0  0
    2.4106    2.8133    1.6855 H   0  0  0  0  0  0  0  0  0  0  0  0
    2.5070    0.3580    1.2882 H   0  0  0  0  0  0  0  0  0  0  0  0
    2.0082    0.3453   -0.4171 H   0  0  0  0  0  0  0  0  0  0  0  0
    1.3583    3.0360   -1.0602 H   0  0  0  0  0  0  0  0  0  0  0  0
    4.7559    1.6985    1.8196 H   0  0  0  0  0  0  0  0  0  0  0  0
    5.2744    2.9041    0.6404 H   0  0  0  0  0  0  0  0  0  0  0  0
    7.2585   -1.0398   -0.3391 H   0  0  0  0  0  0  0  0  0  0  0  0
    4.1121   -3.9362   -0.6417 H   0  0  0  0  0  0  0  0  0  0  0  0
    6.5171   -3.3666   -0.7234 H   0  0  0  0  0  0  0  0  0  0  0  0
    1.8081   -1.8718    1.8400 H   0  0  0  0  0  0  0  0  0  0  0  0
    0.5593   -2.7913    0.9748 H   0  0  0  0  0  0  0  0  0  0  0  0
    2.0866   -3.5883    1.4084 H   0  0  0  0  0  0  0  0  0  0  0  0
  1 14  2  0  0  0  0
  2 15  2  0  0  0  0
  3 23  1  0  0  0  0
  3 25  1  0  0  0  0
  4 26  1  0  0  0  0
  4 30  1  0  0  0  0
  5 14  1  0  0  0  0
  5 15  1  0  0  0  0
  5 16  1  0  0  0  0
  6 20  1  0  0  0  0
  6 21  1  0  0  0  0
  6 56  1  0  0  0  0
  7  8  1  0  0  0  0
  7  9  1  0  0  0  0
  7 12  1  0  0  0  0
  7 13  1  0  0  0  0
  8 10  1  0  0  0  0
  8 31  1  0  0  0  0
  8 32  1  0  0  0  0
  9 11  1  0  0  0  0
  9 33  1  0  0  0  0
  9 34  1  0  0  0  0
 10 11  1  0  0  0  0
 10 35  1  0  0  0  0
 10 36  1  0  0  0  0
 11 37  1  0  0  0  0
 11 38  1  0  0  0  0
 12 14  1  0  0  0  0
 12 39  1  0  0  0  0
 12 40  1  0  0  0  0
 13 15  1  0  0  0  0
 13 41  1  0  0  0  0
 13 42  1  0  0  0  0
 16 17  1  0  0  0  0
 16 43  1  0  0  0  0
 16 44  1  0  0  0  0
 17 18  1  0  0  0  0
 17 45  1  0  0  0  0
 17 46  1  0  0  0  0
 18 20  1  0  0  0  0
 18 47  1  0  0  0  0
 18 48  1  0  0  0  0
 19 21  1  0  0  0  0
 19 22  1  0  0  0  0
 19 23  1  0  0  0  0
 19 49  1  0  0  0  0
 20 50  1  0  0  0  0
 20 51  1  0  0  0  0
 21 52  1  0  0  0  0
 21 53  1  0  0  0  0
 22 24  1  0  0  0  0
 22 54  1  0  0  0  0
 22 55  1  0  0  0  0
 23 57  1  0  0  0  0
 23 58  1  0  0  0  0
 24 25  2  0  0  0  0
 24 26  1  0  0  0  0
 25 27  1  0  0  0  0
 26 28  2  0  0  0  0
 27 29  2  0  0  0  0
 27 59  1  0  0  0  0
 28 29  1  0  0  0  0
 28 60  1  0  0  0  0
 29 61  1  0  0  0  0
 30 62  1  0  0  0  0
 30 63  1  0  0  0  0
 30 64  1  0  0  0  0
M  END
> <PUBCHEM_COMPOUND_CID>
10409556

> <PUBCHEM_CONFORMER_RMSD>
1.4

> <PUBCHEM_CONFORMER_DIVERSEORDER>
1
7
76
38
71
17
13
22
78
11
34
29
24
82
8
10
9
85
48
79
84
64
20
55
49
42
35
62
15
56
87
2
68
77
12
72
23
30
46
50
69
41
83
66
57
58
43
28
19
45
14
81
91
5
3
63
16
88
74
27
37
80
61
18
89
44
21
4
65
60
25
39
51
86
26
36
59
47
31
67
40
32
73
90
33
53
54
52
70
6
75

> <PUBCHEM_MMFF94_PARTIAL_CHARGES>
26
1 -0.57
12 0.06
13 0.06
14 0.57
15 0.57
16 0.3
2 -0.57
20 0.27
21 0.27
22 0.14
23 0.28
24 -0.14
25 0.08
26 0.08
27 -0.15
28 -0.15
29 -0.15
3 -0.36
30 0.28
4 -0.36
5 -0.42
56 0.36
59 0.15
6 -0.9
60 0.15
61 0.15

> <PUBCHEM_EFFECTIVE_ROTOR_COUNT>
10.2

> <PUBCHEM_PHARMACOPHORE_FEATURES>
10
1 1 acceptor
1 2 acceptor
1 3 acceptor
1 4 acceptor
1 6 cation
1 6 donor
5 7 8 9 10 11 rings
6 24 25 26 27 28 29 rings
6 3 19 22 23 24 25 rings
6 5 7 12 13 14 15 rings

> <PUBCHEM_HEAVY_ATOM_COUNT>
30

> <PUBCHEM_ATOM_DEF_STEREO_COUNT>
0

> <PUBCHEM_ATOM_UDEF_STEREO_COUNT>
1

> <PUBCHEM_BOND_DEF_STEREO_COUNT>
0

> <PUBCHEM_BOND_UDEF_STEREO_COUNT>
0

> <PUBCHEM_ISOTOPIC_ATOM_COUNT>
0

> <PUBCHEM_COMPONENT_COUNT>
1

> <PUBCHEM_CACTVS_TAUTO_COUNT>
1

> <PUBCHEM_CONFORMER_ID>
009ED65400000001

> <PUBCHEM_MMFF94_ENERGY>
74.3324

> <PUBCHEM_FEATURE_SELFOVERLAP>
50.785

> <PUBCHEM_SHAPE_FINGERPRINT>
10305334 12 18199196092554850977
10864689 126 17976543810201713180
11136131 41 18190451848578417760
117089 54 18339368559922924798
12422481 6 17275106089896938260
13402501 40 18190176965305471555
13989917 61 17760369190386304579
14279260 333 18048592626234784670
15001296 14 18334289890065587224
15064986 96 17774737398126335287
15320467 1 18194403294739754522
15361156 5 18041857188888227153
15799311 1 18336565883493432188
16110190 28 18271530805839849901
17627616 140 17896874353242477707
17844677 252 18341620333988216922
17909252 39 18340207496412341016
18608769 82 18410857655853534124
19301676 85 18410848842454750735
20764821 26 18335150803306401800
21315759 227 18262221305227506204
23559900 14 18338790247556995633
325973 47 18265057018592769514
3737641 26 18413386514858867868
3886686 26 18339934744920214633
437795 163 18336828573364527098
4394409 98 17032717480026860981
4435113 14 18130240263351931654
463206 1 18410578361929393568
484989 97 18413112758787207372
508706 21 17749104513175063459
5309563 4 18339078323429006637
54583773 228 18335710430463715446
56633871 153 18338526321901260465
613672 6 18266433525594319656
6431902 208 18412537721872922156
7970288 3 18338799030248404361

> <PUBCHEM_SHAPE_MULTIPOLES>
583.95
15.76
5.59
1.17
7.74
1.45
-0.41
-8.53
0.16
-0.9
0.74
-1.26
0.01
1.52

> <PUBCHEM_SHAPE_SELFOVERLAP>
1229.628

> <PUBCHEM_SHAPE_VOLUME>
328.5

> <PUBCHEM_COORDINATE_TYPE>
2
5
10

$$$$
