54577891
  -OEChem-03292015143D

 59 62  0     0  0  0  0  0  0999 V2000
    5.7931   -2.3828   -0.8658 Cl  0  0  0  0  0  0  0  0  0  0  0  0
    8.9196   -3.0747   -0.6431 Cl  0  0  0  0  0  0  0  0  0  0  0  0
   -1.5459   -0.6030    1.1274 O   0  0  0  0  0  0  0  0  0  0  0  0
    2.4399    1.3403   -0.0717 N   0  0  0  0  0  0  0  0  0  0  0  0
    5.1503    0.4390   -0.0880 N   0  0  0  0  0  0  0  0  0  0  0  0
   -1.2228    1.6154    0.5313 N   0  0  0  0  0  0  0  0  0  0  0  0
   -5.5160    0.1370   -0.0286 N   0  0  0  0  0  0  0  0  0  0  0  0
   -3.9676    1.7237   -0.1565 N   0  0  0  0  0  0  0  0  0  0  0  0
    2.8343    0.1601    0.7074 C   0  0  0  0  0  0  0  0  0  0  0  0
    3.2422    1.4199   -1.2983 C   0  0  0  0  0  0  0  0  0  0  0  0
    4.7341    1.5305   -0.9739 C   0  0  0  0  0  0  0  0  0  0  0  0
    4.3121    0.2296    1.0992 C   0  0  0  0  0  0  0  0  0  0  0  0
    1.0142    1.2894   -0.3934 C   0  0  0  0  0  0  0  0  0  0  0  0
    6.5023    0.0866   -0.0088 C   0  0  0  0  0  0  0  0  0  0  0  0
    0.1836    1.6687    0.8238 C   0  0  0  0  0  0  0  0  0  0  0  0
    6.9449   -1.1938   -0.3400 C   0  0  0  0  0  0  0  0  0  0  0  0
    7.4153    1.0526    0.4146 C   0  0  0  0  0  0  0  0  0  0  0  0
   -1.9836    0.4660    0.7100 C   0  0  0  0  0  0  0  0  0  0  0  0
   -3.4179    0.5667    0.3364 C   0  0  0  0  0  0  0  0  0  0  0  0
    8.3006   -1.5087   -0.2479 C   0  0  0  0  0  0  0  0  0  0  0  0
    8.7710    0.7378    0.5066 C   0  0  0  0  0  0  0  0  0  0  0  0
   -4.3591   -0.4318    0.4248 C   0  0  0  0  0  0  0  0  0  0  0  0
    9.2137   -0.5429    0.1754 C   0  0  0  0  0  0  0  0  0  0  0  0
   -5.2320    1.4310   -0.3658 C   0  0  0  0  0  0  0  0  0  0  0  0
   -6.7591   -0.4895   -0.1281 C   0  0  0  0  0  0  0  0  0  0  0  0
   -4.2607   -1.8304    0.8860 C   0  0  0  0  0  0  0  0  0  0  0  0
   -6.2524    2.3596   -0.8984 C   0  0  0  0  0  0  0  0  0  0  0  0
   -7.3719   -1.0078    1.0127 C   0  0  0  0  0  0  0  0  0  0  0  0
   -7.3892   -0.5959   -1.3678 C   0  0  0  0  0  0  0  0  0  0  0  0
   -8.6152   -1.6327    0.9136 C   0  0  0  0  0  0  0  0  0  0  0  0
   -8.6324   -1.2208   -1.4669 C   0  0  0  0  0  0  0  0  0  0  0  0
   -9.2454   -1.7392   -0.3262 C   0  0  0  0  0  0  0  0  0  0  0  0
    3.0676    0.5400   -1.9322 H   0  0  0  0  0  0  0  0  0  0  0  0
    2.2605    0.0802    1.6358 H   0  0  0  0  0  0  0  0  0  0  0  0
    2.6537   -0.7601    0.1349 H   0  0  0  0  0  0  0  0  0  0  0  0
    2.9567    2.3042   -1.8809 H   0  0  0  0  0  0  0  0  0  0  0  0
    5.3008    1.4951   -1.9125 H   0  0  0  0  0  0  0  0  0  0  0  0
    4.9415    2.4967   -0.4967 H   0  0  0  0  0  0  0  0  0  0  0  0
    4.4770    1.0490    1.8107 H   0  0  0  0  0  0  0  0  0  0  0  0
    4.5849   -0.7037    1.6069 H   0  0  0  0  0  0  0  0  0  0  0  0
    0.7804    2.0140   -1.1854 H   0  0  0  0  0  0  0  0  0  0  0  0
    0.7211    0.3062   -0.7849 H   0  0  0  0  0  0  0  0  0  0  0  0
    0.3716    1.0120    1.6780 H   0  0  0  0  0  0  0  0  0  0  0  0
    0.4074    2.6949    1.1367 H   0  0  0  0  0  0  0  0  0  0  0  0
   -1.6688    2.4525    0.1668 H   0  0  0  0  0  0  0  0  0  0  0  0
    7.0897    2.0541    0.6841 H   0  0  0  0  0  0  0  0  0  0  0  0
    9.4818    1.4893    0.8377 H   0  0  0  0  0  0  0  0  0  0  0  0
   10.2739   -0.7704    0.2534 H   0  0  0  0  0  0  0  0  0  0  0  0
   -4.3837   -1.8847    1.9723 H   0  0  0  0  0  0  0  0  0  0  0  0
   -5.0054   -2.4834    0.4208 H   0  0  0  0  0  0  0  0  0  0  0  0
   -3.2895   -2.2660    0.6330 H   0  0  0  0  0  0  0  0  0  0  0  0
   -6.4617    2.1521   -1.9518 H   0  0  0  0  0  0  0  0  0  0  0  0
   -7.1860    2.3131   -0.3293 H   0  0  0  0  0  0  0  0  0  0  0  0
   -5.8881    3.3908   -0.8357 H   0  0  0  0  0  0  0  0  0  0  0  0
   -6.9035   -0.9246    1.9904 H   0  0  0  0  0  0  0  0  0  0  0  0
   -6.9219   -0.2156   -2.2726 H   0  0  0  0  0  0  0  0  0  0  0  0
   -9.0938   -2.0341    1.8021 H   0  0  0  0  0  0  0  0  0  0  0  0
   -9.1214   -1.3073   -2.4328 H   0  0  0  0  0  0  0  0  0  0  0  0
  -10.2131   -2.2260   -0.4035 H   0  0  0  0  0  0  0  0  0  0  0  0
  1 16  1  0  0  0  0
  2 20  1  0  0  0  0
  3 18  2  0  0  0  0
  4  9  1  0  0  0  0
  4 10  1  0  0  0  0
  4 13  1  0  0  0  0
  5 11  1  0  0  0  0
  5 12  1  0  0  0  0
  5 14  1  0  0  0  0
  6 15  1  0  0  0  0
  6 18  1  0  0  0  0
  6 45  1  0  0  0  0
  7 22  1  0  0  0  0
  7 24  1  0  0  0  0
  7 25  1  0  0  0  0
  8 19  1  0  0  0  0
  8 24  2  0  0  0  0
  9 12  1  0  0  0  0
  9 34  1  0  0  0  0
  9 35  1  0  0  0  0
 10 11  1  0  0  0  0
 10 33  1  0  0  0  0
 10 36  1  0  0  0  0
 11 37  1  0  0  0  0
 11 38  1  0  0  0  0
 12 39  1  0  0  0  0
 12 40  1  0  0  0  0
 13 15  1  0  0  0  0
 13 41  1  0  0  0  0
 13 42  1  0  0  0  0
 14 16  2  0  0  0  0
 14 17  1  0  0  0  0
 15 43  1  0  0  0  0
 15 44  1  0  0  0  0
 16 20  1  0  0  0  0
 17 21  2  0  0  0  0
 17 46  1  0  0  0  0
 18 19  1  0  0  0  0
 19 22  2  0  0  0  0
 20 23  2  0  0  0  0
 21 23  1  0  0  0  0
 21 47  1  0  0  0  0
 22 26  1  0  0  0  0
 23 48  1  0  0  0  0
 24 27  1  0  0  0  0
 25 28  2  0  0  0  0
 25 29  1  0  0  0  0
 26 49  1  0  0  0  0
 26 50  1  0  0  0  0
 26 51  1  0  0  0  0
 27 52  1  0  0  0  0
 27 53  1  0  0  0  0
 27 54  1  0  0  0  0
 28 30  1  0  0  0  0
 28 55  1  0  0  0  0
 29 31  2  0  0  0  0
 29 56  1  0  0  0  0
 30 32  2  0  0  0  0
 30 57  1  0  0  0  0
 31 32  1  0  0  0  0
 31 58  1  0  0  0  0
 32 59  1  0  0  0  0
M  END
> <PUBCHEM_COMPOUND_CID>
54577891

> <PUBCHEM_CONFORMER_RMSD>
1

> <PUBCHEM_CONFORMER_DIVERSEORDER>
1
195
122
103
8
137
89
116
131
108
72
148
3
74
160
199
92
86
197
54
200
105
124
79
182
104
30
38
111
87
154
13
183
90
77
171
56
117
191
198
96
99
61
176
186
136
7
16
120
37
73
172
70
32
28
18
75
95
20
173
143
145
175
196
157
192
98
166
80
133
139
52
142
123
57
84
34
69
29
58
126
150
81
177
135
174
178
129
76
168
55
185
190
165
91
33
60
149
147
153
83
68
134
22
130
31
167
53
155
71
187
128
132
188
43
59
114
24
36
193
119
39
169
164
49
109
125
144
138
67
102
21
100
50
12
121
184
156
5
110
17
15
163
162
179
170
25
152
158
127
35
118
113
64
94
41
115
194
47
180
26
106
82
14
107
85
141
45
181
46
112
161
93
146
48
101
66
78
51
159
65
19
40
189
10
151
63
140
44
88
62
9
11
27
2
6
4
97
42
23

> <PUBCHEM_MMFF94_PARTIAL_CHARGES>
41
1 -0.18
10 0.27
11 0.37
12 0.37
13 0.27
14 0.1
15 0.3
16 0.18
17 -0.15
18 0.72
19 0.14
2 -0.18
20 0.18
21 -0.15
22 -0.33
23 -0.15
24 0.01
25 -0.02
26 0.18
27 0.18
28 -0.15
29 -0.15
3 -0.57
30 -0.15
31 -0.15
32 -0.15
4 -0.81
45 0.37
46 0.15
47 0.15
48 0.15
5 -0.84
55 0.15
56 0.15
57 0.15
58 0.15
59 0.15
6 -0.73
7 0.33
8 -0.57
9 0.27

> <PUBCHEM_EFFECTIVE_ROTOR_COUNT>
8.2

> <PUBCHEM_PHARMACOPHORE_FEATURES>
9
1 3 acceptor
1 4 cation
1 5 cation
1 6 donor
3 7 8 24 cation
5 7 8 19 22 24 rings
6 14 16 17 20 21 23 rings
6 25 28 29 30 31 32 rings
6 4 5 9 10 11 12 rings

> <PUBCHEM_HEAVY_ATOM_COUNT>
32

> <PUBCHEM_ATOM_DEF_STEREO_COUNT>
0

> <PUBCHEM_ATOM_UDEF_STEREO_COUNT>
0

> <PUBCHEM_BOND_DEF_STEREO_COUNT>
0

> <PUBCHEM_BOND_UDEF_STEREO_COUNT>
0

> <PUBCHEM_ISOTOPIC_ATOM_COUNT>
0

> <PUBCHEM_COMPONENT_COUNT>
1

> <PUBCHEM_CACTVS_TAUTO_COUNT>
2

> <PUBCHEM_CONFORMER_ID>
0340CAE300000001

> <PUBCHEM_MMFF94_ENERGY>
98.3545

> <PUBCHEM_FEATURE_SELFOVERLAP>
45.675

> <PUBCHEM_SHAPE_FINGERPRINT>
10 15 11455900165538958453
10533779 47 13182465401409159134
10670039 82 17894905227418841869
11135609 127 13912616000385427734
11146346 60 15697730229295222979
11386260 185 16950569925721932532
11607047 74 18265335200359043836
12082328 90 18410289195019638293
12089408 11 18410015437635044992
12592606 108 18333731308330990204
12741549 16 17346883364953588313
13553643 46 9223234039846849054
13560911 43 16343983598726055842
13668630 136 18333732407790071740
13811026 1 18409167714422691574
13885169 127 18335138665644914284
14117953 113 17095524002641266102
14150022 121 15195018128292127099
14617042 71 9943513125635870370
15065858 18 18272364274134258536
15183329 4 17168141238938351417
15198563 99 16660638514502629508
15247644 1 18201718501337334855
15347590 135 15985110690820980742
15392192 104 15841556305942866628
15419008 91 18263062410618183228
15510794 2 18412544292840328548
15690457 1 18343581846015718286
1577012 14 17676479502713379233
16728433 281 15720773742450454703
1818759 1 18412829092369795675
18603816 31 17131826630149282839
19315958 150 8214151775914247033
19841028 212 18264488378573046474
2026 5 18341333301297484270
20721686 124 12396291553229215600
21102433 48 17703787055585627927
212700 22 18409164407551873898
21792961 116 18260830406275941329
21895431 317 18337667525763357098
22149856 69 13614250274139997152
232437 2 18342739628234728266
23569917 315 18410302401548785698
23576562 1 13985243171010251775
24771293 8 8646778798724191555
249057 3 17458627851620360665
3004659 81 18040152924886502608
3178227 256 16272208600672608544
335352 9 17676210187052489392
3711267 37 8718547254614771342
3991529 128 16056592202451347712
4760202 170 14274033151895343398
504579 68 17385442141783818579
54039377 194 18341894117416290229
5758199 1 12751239203441388956
59682541 35 13254797953502550911
6081469 158 17894347791422128956
6201320 215 17703237196724056585
636775 8 17749112232070169043
9937071 3 18409733971279807443
9953998 17 11600003263266149309
9962374 69 18059004098519694996

> <PUBCHEM_SHAPE_MULTIPOLES>
631.51
37.45
2.48
1.15
5.22
0.77
0.13
21.59
4.58
1.32
0.52
-1.04
0.09
1.52

> <PUBCHEM_SHAPE_SELFOVERLAP>
1335.769

> <PUBCHEM_SHAPE_VOLUME>
355.9

> <PUBCHEM_COORDINATE_TYPE>
2
5
10

$$$$
