11176199
  -OEChem-03232009363D

 53 57  0     0  0  0  0  0  0999 V2000
   -8.7086   -2.2075   -0.4357 O   0  0  0  0  0  0  0  0  0  0  0  0
   -0.0041    1.1412    0.4604 N   0  0  0  0  0  0  0  0  0  0  0  0
    2.7877    0.7442    0.0052 N   0  0  0  0  0  0  0  0  0  0  0  0
   -7.6362   -0.2927    0.4077 N   0  0  0  0  0  0  0  0  0  0  0  0
    0.8616    0.6510    1.5401 C   0  0  0  0  0  0  0  0  0  0  0  0
    0.4736    0.6342   -0.8317 C   0  0  0  0  0  0  0  0  0  0  0  0
    2.3054    1.1179    1.3408 C   0  0  0  0  0  0  0  0  0  0  0  0
    1.9050    1.0992   -1.1102 C   0  0  0  0  0  0  0  0  0  0  0  0
   -1.3902    0.7353    0.6903 C   0  0  0  0  0  0  0  0  0  0  0  0
   -2.3160    1.3187   -0.3777 C   0  0  0  0  0  0  0  0  0  0  0  0
    4.1704    0.6745   -0.1989 C   0  0  0  0  0  0  0  0  0  0  0  0
   -3.7524    0.9259   -0.1395 C   0  0  0  0  0  0  0  0  0  0  0  0
    4.9208   -0.5155    0.0135 C   0  0  0  0  0  0  0  0  0  0  0  0
    4.8566    1.8291   -0.6333 C   0  0  0  0  0  0  0  0  0  0  0  0
   -5.5578   -0.5718   -0.4727 C   0  0  0  0  0  0  0  0  0  0  0  0
   -4.2376   -0.2448   -0.7138 C   0  0  0  0  0  0  0  0  0  0  0  0
    6.3185   -0.5311   -0.2083 C   0  0  0  0  0  0  0  0  0  0  0  0
   -4.5583    1.7512    0.6546 C   0  0  0  0  0  0  0  0  0  0  0  0
   -6.3590    0.2491    0.3168 C   0  0  0  0  0  0  0  0  0  0  0  0
   -6.3556   -1.7460   -0.9433 C   0  0  0  0  0  0  0  0  0  0  0  0
   -5.8918    1.4128    0.8929 C   0  0  0  0  0  0  0  0  0  0  0  0
    4.2809   -1.6885    0.4457 C   0  0  0  0  0  0  0  0  0  0  0  0
    6.2310    1.8135   -0.8517 C   0  0  0  0  0  0  0  0  0  0  0  0
    6.9585    0.6419   -0.6409 C   0  0  0  0  0  0  0  0  0  0  0  0
   -7.7295   -1.4875   -0.3146 C   0  0  0  0  0  0  0  0  0  0  0  0
    7.0352   -1.7191    0.0089 C   0  0  0  0  0  0  0  0  0  0  0  0
    5.0087   -2.8600    0.6567 C   0  0  0  0  0  0  0  0  0  0  0  0
    6.3832   -2.8752    0.4388 C   0  0  0  0  0  0  0  0  0  0  0  0
    0.8346   -0.4459    1.5914 H   0  0  0  0  0  0  0  0  0  0  0  0
    0.5103    1.0318    2.5068 H   0  0  0  0  0  0  0  0  0  0  0  0
   -0.1155    1.0117   -1.6710 H   0  0  0  0  0  0  0  0  0  0  0  0
    0.4299   -0.4629   -0.8610 H   0  0  0  0  0  0  0  0  0  0  0  0
    2.3716    2.2069    1.4605 H   0  0  0  0  0  0  0  0  0  0  0  0
    2.9310    0.6642    2.1193 H   0  0  0  0  0  0  0  0  0  0  0  0
    2.2551    0.6253   -2.0356 H   0  0  0  0  0  0  0  0  0  0  0  0
    1.9225    2.1855   -1.2661 H   0  0  0  0  0  0  0  0  0  0  0  0
   -1.4816   -0.3593    0.7150 H   0  0  0  0  0  0  0  0  0  0  0  0
   -1.7165    1.1003    1.6731 H   0  0  0  0  0  0  0  0  0  0  0  0
   -2.0668    0.9790   -1.3878 H   0  0  0  0  0  0  0  0  0  0  0  0
   -2.2329    2.4135   -0.3993 H   0  0  0  0  0  0  0  0  0  0  0  0
    4.3140    2.7578   -0.7987 H   0  0  0  0  0  0  0  0  0  0  0  0
   -3.6106   -0.8836   -1.3263 H   0  0  0  0  0  0  0  0  0  0  0  0
   -4.1558    2.6601    1.0944 H   0  0  0  0  0  0  0  0  0  0  0  0
   -6.4478   -1.7568   -2.0323 H   0  0  0  0  0  0  0  0  0  0  0  0
   -5.9490   -2.6854   -0.5605 H   0  0  0  0  0  0  0  0  0  0  0  0
   -6.5256    2.0428    1.5060 H   0  0  0  0  0  0  0  0  0  0  0  0
    3.2087   -1.7216    0.6243 H   0  0  0  0  0  0  0  0  0  0  0  0
    6.7385    2.7141   -1.1847 H   0  0  0  0  0  0  0  0  0  0  0  0
    8.0321    0.6530   -0.8174 H   0  0  0  0  0  0  0  0  0  0  0  0
   -8.3917    0.1321    0.9322 H   0  0  0  0  0  0  0  0  0  0  0  0
    8.1102   -1.7541   -0.1553 H   0  0  0  0  0  0  0  0  0  0  0  0
    4.5019   -3.7608    0.9903 H   0  0  0  0  0  0  0  0  0  0  0  0
    6.9491   -3.7877    0.6029 H   0  0  0  0  0  0  0  0  0  0  0  0
  1 25  2  0  0  0  0
  2  5  1  0  0  0  0
  2  6  1  0  0  0  0
  2  9  1  0  0  0  0
  3  7  1  0  0  0  0
  3  8  1  0  0  0  0
  3 11  1  0  0  0  0
  4 19  1  0  0  0  0
  4 25  1  0  0  0  0
  4 50  1  0  0  0  0
  5  7  1  0  0  0  0
  5 29  1  0  0  0  0
  5 30  1  0  0  0  0
  6  8  1  0  0  0  0
  6 31  1  0  0  0  0
  6 32  1  0  0  0  0
  7 33  1  0  0  0  0
  7 34  1  0  0  0  0
  8 35  1  0  0  0  0
  8 36  1  0  0  0  0
  9 10  1  0  0  0  0
  9 37  1  0  0  0  0
  9 38  1  0  0  0  0
 10 12  1  0  0  0  0
 10 39  1  0  0  0  0
 10 40  1  0  0  0  0
 11 13  1  0  0  0  0
 11 14  2  0  0  0  0
 12 16  2  0  0  0  0
 12 18  1  0  0  0  0
 13 17  1  0  0  0  0
 13 22  2  0  0  0  0
 14 23  1  0  0  0  0
 14 41  1  0  0  0  0
 15 16  1  0  0  0  0
 15 19  2  0  0  0  0
 15 20  1  0  0  0  0
 16 42  1  0  0  0  0
 17 24  1  0  0  0  0
 17 26  2  0  0  0  0
 18 21  2  0  0  0  0
 18 43  1  0  0  0  0
 19 21  1  0  0  0  0
 20 25  1  0  0  0  0
 20 44  1  0  0  0  0
 20 45  1  0  0  0  0
 21 46  1  0  0  0  0
 22 27  1  0  0  0  0
 22 47  1  0  0  0  0
 23 24  2  0  0  0  0
 23 48  1  0  0  0  0
 24 49  1  0  0  0  0
 26 28  1  0  0  0  0
 26 51  1  0  0  0  0
 27 28  2  0  0  0  0
 27 52  1  0  0  0  0
 28 53  1  0  0  0  0
M  END
> <PUBCHEM_COMPOUND_CID>
11176199

> <PUBCHEM_CONFORMER_RMSD>
0.8

> <PUBCHEM_CONFORMER_DIVERSEORDER>
1
65
132
135
124
103
22
101
102
83
92
3
117
21
34
11
108
99
24
131
42
56
31
127
25
90
13
122
5
68
51
16
52
60
55
40
45
125
15
86
77
17
61
6
26
37
85
59
94
47
12
96
27
50
95
80
91
111
98
72
120
33
116
69
39
118
7
44
121
114
64
71
10
35
109
58
23
89
112
48
53
107
9
38
76
62
18
8
79
88
2
130
93
70
115
14
43
54
74
75
87
82
19
119
100
78
104
4
32
67
81
113
106
73
123
126
29
41
134
46
49
63
36
84
30
128
28
66
133
20
97
57
110
129
105

> <PUBCHEM_MMFF94_PARTIAL_CHARGES>
37
1 -0.57
10 0.14
11 0.1
12 -0.14
14 -0.15
15 -0.14
16 -0.15
18 -0.15
19 0.12
2 -0.81
20 0.2
21 -0.15
22 -0.15
23 -0.15
24 -0.15
25 0.57
26 -0.15
27 -0.15
28 -0.15
3 -0.84
4 -0.55
41 0.15
42 0.15
43 0.15
46 0.15
47 0.15
48 0.15
49 0.15
5 0.27
50 0.37
51 0.15
52 0.15
53 0.15
6 0.27
7 0.37
8 0.37
9 0.27

> <PUBCHEM_EFFECTIVE_ROTOR_COUNT>
5.6

> <PUBCHEM_PHARMACOPHORE_FEATURES>
9
1 1 acceptor
1 2 cation
1 3 cation
1 4 donor
5 4 15 19 20 25 rings
6 11 13 14 17 23 24 rings
6 12 15 16 18 19 21 rings
6 13 17 22 26 27 28 rings
6 2 3 5 6 7 8 rings

> <PUBCHEM_HEAVY_ATOM_COUNT>
28

> <PUBCHEM_ATOM_DEF_STEREO_COUNT>
0

> <PUBCHEM_ATOM_UDEF_STEREO_COUNT>
0

> <PUBCHEM_BOND_DEF_STEREO_COUNT>
0

> <PUBCHEM_BOND_UDEF_STEREO_COUNT>
0

> <PUBCHEM_ISOTOPIC_ATOM_COUNT>
0

> <PUBCHEM_COMPONENT_COUNT>
1

> <PUBCHEM_CACTVS_TAUTO_COUNT>
3

> <PUBCHEM_CONFORMER_ID>
00AA890700000001

> <PUBCHEM_MMFF94_ENERGY>
95.5145

> <PUBCHEM_FEATURE_SELFOVERLAP>
45.793

> <PUBCHEM_SHAPE_FINGERPRINT>
10 15 16487249993230850657
10162869 55 18260828229028442652
10299344 5 18413673513110253849
10595046 47 18410578370793790360
10677351 14 18259987054465479141
10693767 8 17969496018768917378
11315181 36 18341898507200382089
11497681 19 18334574664062146471
11524674 6 16128374900600524749
11646440 116 15123791781618030577
11719270 70 17632579314445445166
11991303 11 15213314044432814371
12082328 90 18333728018977067525
12166972 35 18410295825948450793
12236239 1 18411421691521486992
13533116 47 18409168788660647696
1361 2 18187367606482054714
1361 4 18411138043244085711
13673619 4 17775283894002497577
13782708 43 18411697660275796929
13835254 42 18261671481317485020
13974486 7 17974563599538538298
14178184 131 17986954245015979815
14251764 18 18343302573966912047
14347332 77 18262515884181299636
15119646 104 18410577258386191530
15183329 4 18259703393360886059
15198563 99 16371283325107334565
15348495 7 14189278400645118591
15352257 5 18412544310373924435
15467298 65 18411688898892082607
15475509 35 18130213883894999026
15716309 27 18412265034662939061
1577012 14 18411423890813813473
17134984 74 18186517696826289306
20165401 70 18337952286542815478
2026 5 18189049798705959242
20567600 247 18409445851972735610
21130935 74 18271525295449375050
21150785 3 18040715891602808081
21315759 40 18412832386778705081
21521239 73 18113336397308600378
21781051 124 17417822742442906110
21792934 111 13398637147734509531
21792938 703 17822582719518301435
22956985 138 17056418604943192870
23081809 10 18412549799020485849
23516275 137 18128278721249187267
23522609 53 18126595420549947553
23569943 247 17971188127871081794
23576562 1 13985247547175991279
3004659 81 18410573951614645826
3178227 256 16487257694212655204
33532 11 18409728447920085835
34797466 226 17530685428763736924
3663271 9 18343304751447103609
397638 26 15195565715089761023
397830 11 13110381533610920933
4073 2 18115313400962125450
4098825 35 18261673666848507589
439807 62 18413388744067836915
44880568 143 16660359264550833205
465052 167 17989204833241724212
5104073 3 15697135491872033775
5470011 282 18186801417817109941
57359948 33 12396843490099901451
6057620 51 18410300237565503504
9831232 110 18198628722822003174
999808 66 18187937209582521467

> <PUBCHEM_SHAPE_MULTIPOLES>
555.41
26.77
2.55
1.07
25.43
1.64
0.13
13.94
-2.92
-2.34
0.09
-0.02
-0.22
-2.64

> <PUBCHEM_SHAPE_SELFOVERLAP>
1223.114

> <PUBCHEM_SHAPE_VOLUME>
300.6

> <PUBCHEM_COORDINATE_TYPE>
2
5
10

$$$$
