72548703
  -OEChem-03232009363D

 77 81  0     0  0  0  0  0  0999 V2000
   -0.8381   -1.7523    0.2033 S   0  0  0  0  0  0  0  0  0  0  0  0
    5.7916    0.4424    0.5259 S   0  0  0  0  0  0  0  0  0  0  0  0
  -10.1804   -1.4735    1.3980 O   0  0  0  0  0  0  0  0  0  0  0  0
   -8.6654    0.1615    1.7987 O   0  0  0  0  0  0  0  0  0  0  0  0
   -3.5373   -3.0198    0.3861 O   0  0  0  0  0  0  0  0  0  0  0  0
    6.4191    0.9983   -0.6617 O   0  0  0  0  0  0  0  0  0  0  0  0
    5.8715    1.1601    1.7872 O   0  0  0  0  0  0  0  0  0  0  0  0
   -4.7663   -1.3019   -0.5648 N   0  0  0  0  0  0  0  0  0  0  0  0
   -2.3280    0.0762   -0.8547 N   0  0  0  0  0  0  0  0  0  0  0  0
    6.3586   -1.1501    0.7591 N   0  0  0  0  0  0  0  0  0  0  0  0
   -6.0600   -1.9585   -0.4663 C   0  0  0  0  0  0  0  0  0  0  0  0
   -8.0117   -1.7538    0.3970 C   0  0  0  0  0  0  0  0  0  0  0  0
   -6.6097   -2.0873    0.9702 C   0  0  0  0  0  0  0  0  0  0  0  0
   -7.2699   -1.0492   -0.7688 C   0  0  0  0  0  0  0  0  0  0  0  0
   -1.5544    2.9796   -0.7443 C   0  0  0  0  0  0  0  0  0  0  0  0
   -1.3092    4.3496   -1.3911 C   0  0  0  0  0  0  0  0  0  0  0  0
   -1.1905    3.0061    0.7464 C   0  0  0  0  0  0  0  0  0  0  0  0
   -1.9249    4.1221    1.4861 C   0  0  0  0  0  0  0  0  0  0  0  0
   -2.0432    5.4634   -0.6476 C   0  0  0  0  0  0  0  0  0  0  0  0
   -1.6857    5.4810    0.8352 C   0  0  0  0  0  0  0  0  0  0  0  0
   -0.7681    1.8910   -1.4722 C   0  0  0  0  0  0  0  0  0  0  0  0
   -8.9482   -0.9085    1.2650 C   0  0  0  0  0  0  0  0  0  0  0  0
   -1.0246    0.5326   -0.8803 C   0  0  0  0  0  0  0  0  0  0  0  0
   -3.5451   -1.8699   -0.1279 C   0  0  0  0  0  0  0  0  0  0  0  0
   -0.0773   -0.3188   -0.3515 C   0  0  0  0  0  0  0  0  0  0  0  0
   -2.3493   -1.1179   -0.3054 C   0  0  0  0  0  0  0  0  0  0  0  0
    1.3506   -0.1706   -0.2169 C   0  0  0  0  0  0  0  0  0  0  0  0
    2.2476   -0.5872   -1.2140 C   0  0  0  0  0  0  0  0  0  0  0  0
    3.6372   -0.4099   -1.0128 C   0  0  0  0  0  0  0  0  0  0  0  0
    1.8170    0.4125    0.9616 C   0  0  0  0  0  0  0  0  0  0  0  0
    4.0889    0.1789    0.1796 C   0  0  0  0  0  0  0  0  0  0  0  0
    7.4397   -1.4140    1.7194 C   0  0  0  0  0  0  0  0  0  0  0  0
    3.1835    0.5869    1.1595 C   0  0  0  0  0  0  0  0  0  0  0  0
    1.7960   -1.1759   -2.4064 C   0  0  0  0  0  0  0  0  0  0  0  0
    4.5343   -0.8264   -2.0098 C   0  0  0  0  0  0  0  0  0  0  0  0
    6.9372   -1.0651    3.1210 C   0  0  0  0  0  0  0  0  0  0  0  0
    7.8073   -2.8959    1.6301 C   0  0  0  0  0  0  0  0  0  0  0  0
    8.6381   -0.5420    1.3419 C   0  0  0  0  0  0  0  0  0  0  0  0
    2.7014   -1.5839   -3.3864 C   0  0  0  0  0  0  0  0  0  0  0  0
    4.0679   -1.4095   -3.1885 C   0  0  0  0  0  0  0  0  0  0  0  0
   -6.0853   -2.9010   -1.0279 H   0  0  0  0  0  0  0  0  0  0  0  0
   -8.5163   -2.6665    0.0434 H   0  0  0  0  0  0  0  0  0  0  0  0
   -6.5141   -3.0801    1.4193 H   0  0  0  0  0  0  0  0  0  0  0  0
   -7.0936    0.0213   -0.6075 H   0  0  0  0  0  0  0  0  0  0  0  0
   -6.2238   -1.3437    1.6782 H   0  0  0  0  0  0  0  0  0  0  0  0
   -7.7192   -1.1842   -1.7569 H   0  0  0  0  0  0  0  0  0  0  0  0
   -2.6281    2.7583   -0.8265 H   0  0  0  0  0  0  0  0  0  0  0  0
   -0.1088    3.1493    0.8647 H   0  0  0  0  0  0  0  0  0  0  0  0
   -1.4430    2.0581    1.2340 H   0  0  0  0  0  0  0  0  0  0  0  0
   -1.6399    4.3344   -2.4364 H   0  0  0  0  0  0  0  0  0  0  0  0
   -0.2343    4.5713   -1.4009 H   0  0  0  0  0  0  0  0  0  0  0  0
   -1.7960    6.4315   -1.0977 H   0  0  0  0  0  0  0  0  0  0  0  0
   -3.1255    5.3255   -0.7608 H   0  0  0  0  0  0  0  0  0  0  0  0
   -3.0004    3.9064    1.4971 H   0  0  0  0  0  0  0  0  0  0  0  0
   -1.5944    4.1513    2.5306 H   0  0  0  0  0  0  0  0  0  0  0  0
   -2.2792    6.2457    1.3488 H   0  0  0  0  0  0  0  0  0  0  0  0
   -0.6318    5.7614    0.9531 H   0  0  0  0  0  0  0  0  0  0  0  0
    0.3031    2.1248   -1.4557 H   0  0  0  0  0  0  0  0  0  0  0  0
   -1.0638    1.8630   -2.5286 H   0  0  0  0  0  0  0  0  0  0  0  0
   -4.7091   -0.3747   -0.9808 H   0  0  0  0  0  0  0  0  0  0  0  0
  -10.7741   -0.9258    1.9547 H   0  0  0  0  0  0  0  0  0  0  0  0
    1.1288    0.7378    1.7389 H   0  0  0  0  0  0  0  0  0  0  0  0
    3.5018    1.0411    2.0927 H   0  0  0  0  0  0  0  0  0  0  0  0
    5.6611   -1.9038    0.6947 H   0  0  0  0  0  0  0  0  0  0  0  0
    0.7403   -1.3319   -2.6123 H   0  0  0  0  0  0  0  0  0  0  0  0
    5.6111   -0.7615   -1.9183 H   0  0  0  0  0  0  0  0  0  0  0  0
    8.6308   -3.1443    2.3087 H   0  0  0  0  0  0  0  0  0  0  0  0
    7.5297   -1.5955    3.8772 H   0  0  0  0  0  0  0  0  0  0  0  0
    9.5028   -0.7834    1.9713 H   0  0  0  0  0  0  0  0  0  0  0  0
    5.8917   -1.3596    3.2678 H   0  0  0  0  0  0  0  0  0  0  0  0
    7.0417   -0.0073    3.3747 H   0  0  0  0  0  0  0  0  0  0  0  0
    8.1164   -3.1666    0.6138 H   0  0  0  0  0  0  0  0  0  0  0  0
    6.9540   -3.5328    1.8909 H   0  0  0  0  0  0  0  0  0  0  0  0
    8.9337   -0.7043    0.2987 H   0  0  0  0  0  0  0  0  0  0  0  0
    8.4483    0.5288    1.4660 H   0  0  0  0  0  0  0  0  0  0  0  0
    2.3395   -2.0390   -4.3038 H   0  0  0  0  0  0  0  0  0  0  0  0
    4.7718   -1.7354   -3.9488 H   0  0  0  0  0  0  0  0  0  0  0  0
  1 25  1  0  0  0  0
  1 26  1  0  0  0  0
  2  6  2  0  0  0  0
  2  7  2  0  0  0  0
  2 10  1  0  0  0  0
  2 31  1  0  0  0  0
  3 22  1  0  0  0  0
  3 61  1  0  0  0  0
  4 22  2  0  0  0  0
  5 24  2  0  0  0  0
  8 11  1  0  0  0  0
  8 24  1  0  0  0  0
  8 60  1  0  0  0  0
  9 23  1  0  0  0  0
  9 26  2  0  0  0  0
 10 32  1  0  0  0  0
 10 64  1  0  0  0  0
 11 13  1  0  0  0  0
 11 14  1  0  0  0  0
 11 41  1  0  0  0  0
 12 13  1  0  0  0  0
 12 14  1  0  0  0  0
 12 22  1  0  0  0  0
 12 42  1  0  0  0  0
 13 43  1  0  0  0  0
 13 45  1  0  0  0  0
 14 44  1  0  0  0  0
 14 46  1  0  0  0  0
 15 16  1  0  0  0  0
 15 17  1  0  0  0  0
 15 21  1  0  0  0  0
 15 47  1  0  0  0  0
 16 19  1  0  0  0  0
 16 50  1  0  0  0  0
 16 51  1  0  0  0  0
 17 18  1  0  0  0  0
 17 48  1  0  0  0  0
 17 49  1  0  0  0  0
 18 20  1  0  0  0  0
 18 54  1  0  0  0  0
 18 55  1  0  0  0  0
 19 20  1  0  0  0  0
 19 52  1  0  0  0  0
 19 53  1  0  0  0  0
 20 56  1  0  0  0  0
 20 57  1  0  0  0  0
 21 23  1  0  0  0  0
 21 58  1  0  0  0  0
 21 59  1  0  0  0  0
 23 25  2  0  0  0  0
 24 26  1  0  0  0  0
 25 27  1  0  0  0  0
 27 28  1  0  0  0  0
 27 30  2  0  0  0  0
 28 29  1  0  0  0  0
 28 34  2  0  0  0  0
 29 31  1  0  0  0  0
 29 35  2  0  0  0  0
 30 33  1  0  0  0  0
 30 62  1  0  0  0  0
 31 33  2  0  0  0  0
 32 36  1  0  0  0  0
 32 37  1  0  0  0  0
 32 38  1  0  0  0  0
 33 63  1  0  0  0  0
 34 39  1  0  0  0  0
 34 65  1  0  0  0  0
 35 40  1  0  0  0  0
 35 66  1  0  0  0  0
 36 68  1  0  0  0  0
 36 70  1  0  0  0  0
 36 71  1  0  0  0  0
 37 67  1  0  0  0  0
 37 72  1  0  0  0  0
 37 73  1  0  0  0  0
 38 69  1  0  0  0  0
 38 74  1  0  0  0  0
 38 75  1  0  0  0  0
 39 40  2  0  0  0  0
 39 76  1  0  0  0  0
 40 77  1  0  0  0  0
M  END
> <PUBCHEM_COMPOUND_CID>
72548703

> <PUBCHEM_CONFORMER_RMSD>
1.2

> <PUBCHEM_CONFORMER_DIVERSEORDER>
1
94
72
68
95
102
100
101
53
54
79
51
29
86
28
105
87
107
99
59
71
21
93
40
103
97
70
42
66
106
56
52
46
22
76
44
108
39
23
57
27
48
89
50
96
63
55
43
65
61
77
64
98
31
69
4
24
85
73
33
75
6
84
91
78
16
104
60
32
37
35
92
45
62
58
30
88
38
25
49
12
47
20
81
18
74
19
8
83
80
41
10
90
5
7
14
15
17
82
67
13
11
9
36
34
26
3
2

> <PUBCHEM_MMFF94_PARTIAL_CHARGES>
36
1 -0.08
10 -0.91
11 0.22
12 0.05
2 1.45
21 0.18
22 0.67
23 0.05
24 0.71
25 -0.01
26 0.29
27 0.05
3 -0.65
30 -0.15
31 -0.01
32 0.36
33 -0.15
34 -0.15
35 -0.15
39 -0.15
4 -0.57
40 -0.15
5 -0.57
6 -0.65
60 0.37
61 0.5
62 0.15
63 0.15
64 0.42
65 0.15
66 0.15
7 -0.65
76 0.15
77 0.15
8 -0.65
9 -0.57

> <PUBCHEM_EFFECTIVE_ROTOR_COUNT>
12

> <PUBCHEM_PHARMACOPHORE_FEATURES>
15
1 10 donor
1 3 acceptor
1 4 acceptor
1 5 acceptor
1 6 acceptor
1 7 acceptor
1 8 donor
1 9 acceptor
3 3 4 22 anion
4 11 12 13 14 rings
4 32 36 37 38 hydrophobe
5 1 9 23 25 26 rings
6 15 16 17 18 19 20 rings
6 27 28 29 30 31 33 rings
6 28 29 34 35 39 40 rings

> <PUBCHEM_HEAVY_ATOM_COUNT>
40

> <PUBCHEM_ATOM_DEF_STEREO_COUNT>
0

> <PUBCHEM_ATOM_UDEF_STEREO_COUNT>
0

> <PUBCHEM_BOND_DEF_STEREO_COUNT>
0

> <PUBCHEM_BOND_UDEF_STEREO_COUNT>
0

> <PUBCHEM_ISOTOPIC_ATOM_COUNT>
0

> <PUBCHEM_COMPONENT_COUNT>
1

> <PUBCHEM_CACTVS_TAUTO_COUNT>
2

> <PUBCHEM_CONFORMER_ID>
0453015F00000001

> <PUBCHEM_MMFF94_ENERGY>
86.1577

> <PUBCHEM_FEATURE_SELFOVERLAP>
76.229

> <PUBCHEM_SHAPE_FINGERPRINT>
102385 1 17978513027517952415
11297750 10 17557171435700805439
11411753 29 17773609230650950934
11456790 92 18261404377880341969
11672396 43 17531525386927984714
12166972 35 16877654682638842238
12758862 56 18337402633966307347
13383665 225 18126594334234042548
13383668 254 15697413608126434136
13540713 4 17630332943997663334
14068700 675 18187078481672639900
15131766 46 15768632360987321824
16090146 7 16950289485884769010
21057603 238 18053391998816150094
21927370 108 18335699429623499445
22223350 30 17979644429224855014
22899556 56 18197768904523132552
244849 19 17702103565537704158
24771293 8 18059572568001658677
249057 3 14490189440084456842
3552219 110 18041000656614587101
4258327 124 11023817431450428762
4516262 110 14405185084493429778
4561138 5 17822017561914961732
5219985 9 18409728499960756005
57527293 21 18200300165295607406
6523845 18 9295021115526731195
7399639 24 17988924466202935838

> <PUBCHEM_SHAPE_MULTIPOLES>
786.59
25.03
5.07
2.55
21.37
11.01
1.03
-23.33
-18.85
6.91
-0.36
-4.39
-1.02
0.41

> <PUBCHEM_SHAPE_SELFOVERLAP>
1660.613

> <PUBCHEM_SHAPE_VOLUME>
443.5

> <PUBCHEM_COORDINATE_TYPE>
2
5
10

$$$$
