
 OpenBabel03242023313D

 56 58  0  0  0  0  0  0  0  0999 V2000
    1.6057   -4.4477   -0.4016 C   0  0  0  0  0  0  0  0  0  0  0  0
    1.5976   -3.0423   -0.6328 O   0  0  0  0  0  0  0  0  0  0  0  0
    2.8232   -2.4826   -0.9252 C   0  0  0  0  0  0  0  0  0  0  0  0
    3.9882   -2.9382   -0.2810 C   0  0  0  0  0  0  0  0  0  0  0  0
    5.2119   -2.3093   -0.4927 C   0  0  0  0  0  0  0  0  0  0  0  0
    5.2832   -1.2167   -1.3426 C   0  0  0  0  0  0  0  0  0  0  0  0
    4.1263   -0.7555   -1.9775 C   0  0  0  0  0  0  0  0  0  0  0  0
    2.8651   -1.3564   -1.7879 C   0  0  0  0  0  0  0  0  0  0  0  0
    1.7560   -0.8236   -2.4294 N   0  0  0  0  0  0  0  0  0  0  0  0
    0.6564   -1.6475   -2.9406 C   0  0  0  0  0  0  0  0  0  0  0  0
   -0.6883   -1.0885   -2.4280 C   0  0  0  0  0  0  0  0  0  0  0  0
   -0.9258    0.3365   -2.7831 N   0  0  0  0  0  0  0  0  0  0  0  0
   -1.1281    0.5437   -4.2261 C   0  0  0  0  0  0  0  0  0  0  0  0
   -2.4084   -0.1185   -4.7587 C   0  0  0  0  0  0  0  0  0  0  0  0
   -3.6294    0.4106   -4.0166 C   0  0  0  0  0  0  0  0  0  0  0  0
   -4.8254   -0.2140   -4.4960 O   0  0  0  0  0  0  0  0  0  0  0  0
   -5.9502    0.1854   -3.8089 C   0  0  0  0  0  0  0  0  0  0  0  0
   -6.1289    1.5055   -3.3700 C   0  0  0  0  0  0  0  0  0  0  0  0
   -7.2754    1.8798   -2.6732 C   0  0  0  0  0  0  0  0  0  0  0  0
   -8.2803    0.9514   -2.4225 C   0  0  0  0  0  0  0  0  0  0  0  0
   -9.5152    1.3521   -1.6764 C   0  0  0  0  0  0  0  0  0  0  0  0
   -8.1226   -0.3625   -2.8917 C   0  0  0  0  0  0  0  0  0  0  0  0
   -6.9623   -0.7593   -3.5786 C   0  0  0  0  0  0  0  0  0  0  0  0
   -6.8433   -2.1727   -4.0739 C   0  0  0  0  0  0  0  0  0  0  0  0
    0.2204    1.1260   -2.2735 C   0  0  0  0  0  0  0  0  0  0  0  0
    1.6271    0.6189   -2.6861 C   0  0  0  0  0  0  0  0  0  0  0  0
    0.5766   -4.8081   -0.4942 H   0  0  0  0  0  0  0  0  0  0  0  0
    1.9416   -4.6711    0.6157 H   0  0  0  0  0  0  0  0  0  0  0  0
    2.2124   -4.9803   -1.1424 H   0  0  0  0  0  0  0  0  0  0  0  0
    3.9577   -3.7621    0.4217 H   0  0  0  0  0  0  0  0  0  0  0  0
    6.1036   -2.6642    0.0178 H   0  0  0  0  0  0  0  0  0  0  0  0
    6.2292   -0.7154   -1.5130 H   0  0  0  0  0  0  0  0  0  0  0  0
    4.2310    0.0887   -2.6546 H   0  0  0  0  0  0  0  0  0  0  0  0
    0.7341   -2.7090   -2.6990 H   0  0  0  0  0  0  0  0  0  0  0  0
    0.6805   -1.6163   -4.0369 H   0  0  0  0  0  0  0  0  0  0  0  0
   -0.7117   -1.1692   -1.3326 H   0  0  0  0  0  0  0  0  0  0  0  0
   -1.5131   -1.7186   -2.7752 H   0  0  0  0  0  0  0  0  0  0  0  0
   -0.2726    0.2078   -4.8210 H   0  0  0  0  0  0  0  0  0  0  0  0
   -1.2195    1.6230   -4.4117 H   0  0  0  0  0  0  0  0  0  0  0  0
   -2.3607   -1.2100   -4.6997 H   0  0  0  0  0  0  0  0  0  0  0  0
   -2.5127    0.1079   -5.8268 H   0  0  0  0  0  0  0  0  0  0  0  0
   -3.6604    1.4894   -4.2018 H   0  0  0  0  0  0  0  0  0  0  0  0
   -3.5383    0.2215   -2.9391 H   0  0  0  0  0  0  0  0  0  0  0  0
   -5.3938    2.2783   -3.5642 H   0  0  0  0  0  0  0  0  0  0  0  0
   -7.3729    2.9093   -2.3351 H   0  0  0  0  0  0  0  0  0  0  0  0
   -9.4628    2.3968   -1.3493 H   0  0  0  0  0  0  0  0  0  0  0  0
   -9.6370    0.7317   -0.7829 H   0  0  0  0  0  0  0  0  0  0  0  0
  -10.3964    1.2464   -2.3172 H   0  0  0  0  0  0  0  0  0  0  0  0
   -8.9158   -1.0861   -2.7118 H   0  0  0  0  0  0  0  0  0  0  0  0
   -7.5724   -2.8257   -3.5808 H   0  0  0  0  0  0  0  0  0  0  0  0
   -5.8526   -2.5835   -3.8593 H   0  0  0  0  0  0  0  0  0  0  0  0
   -7.0280   -2.2112   -5.1519 H   0  0  0  0  0  0  0  0  0  0  0  0
    0.1636    1.1158   -1.1764 H   0  0  0  0  0  0  0  0  0  0  0  0
    0.1105    2.1798   -2.5586 H   0  0  0  0  0  0  0  0  0  0  0  0
    2.3574    1.2081   -2.1197 H   0  0  0  0  0  0  0  0  0  0  0  0
    1.8009    0.8133   -3.7512 H   0  0  0  0  0  0  0  0  0  0  0  0
  1  2  1  0  0  0  0
  1 27  1  0  0  0  0
  1 28  1  0  0  0  0
  1 29  1  0  0  0  0
  2  3  1  0  0  0  0
  3  4  1  0  0  0  0
  3  8  2  0  0  0  0
  4  5  2  0  0  0  0
  4 30  1  0  0  0  0
  5  6  1  0  0  0  0
  5 31  1  0  0  0  0
  6  7  2  0  0  0  0
  6 32  1  0  0  0  0
  7  8  1  0  0  0  0
  7 33  1  0  0  0  0
  8  9  1  0  0  0  0
  9 10  1  0  0  0  0
  9 26  1  0  0  0  0
 10 11  1  0  0  0  0
 10 34  1  0  0  0  0
 10 35  1  0  0  0  0
 11 12  1  0  0  0  0
 11 36  1  0  0  0  0
 11 37  1  0  0  0  0
 12 13  1  0  0  0  0
 12 25  1  0  0  0  0
 13 14  1  0  0  0  0
 13 38  1  0  0  0  0
 13 39  1  0  0  0  0
 14 15  1  0  0  0  0
 14 40  1  0  0  0  0
 14 41  1  0  0  0  0
 15 16  1  0  0  0  0
 15 42  1  0  0  0  0
 15 43  1  0  0  0  0
 16 17  1  0  0  0  0
 17 18  1  0  0  0  0
 17 23  2  0  0  0  0
 18 19  2  0  0  0  0
 18 44  1  0  0  0  0
 19 20  1  0  0  0  0
 19 45  1  0  0  0  0
 20 21  1  0  0  0  0
 20 22  2  0  0  0  0
 21 46  1  0  0  0  0
 21 47  1  0  0  0  0
 21 48  1  0  0  0  0
 22 23  1  0  0  0  0
 22 49  1  0  0  0  0
 23 24  1  0  0  0  0
 24 50  1  0  0  0  0
 24 51  1  0  0  0  0
 24 52  1  0  0  0  0
 25 26  1  0  0  0  0
 25 53  1  0  0  0  0
 25 54  1  0  0  0  0
 26 55  1  0  0  0  0
 26 56  1  0  0  0  0
M  END
>  <Energy>
151.944

$$$$
