44318842
  -OEChem-03232009313D

 47 50  0     1  0  0  0  0  0999 V2000
    0.9074   -1.5443    0.1583 O   0  0  0  0  0  0  0  0  0  0  0  0
   -0.0623   -0.6623   -0.3550 N   0  0  3  0  0  0  0  0  0  0  0  0
    4.5737   -1.0573   -0.0563 N   0  0  0  0  0  0  0  0  0  0  0  0
    0.5432    0.4744   -1.0479 C   0  0  2  0  0  0  0  0  0  0  0  0
    2.0131    0.0722   -1.0983 C   0  0  0  0  0  0  0  0  0  0  0  0
    2.1371   -0.8073    0.1277 C   0  0  2  0  0  0  0  0  0  0  0  0
    0.1773    1.7672   -0.3465 C   0  0  0  0  0  0  0  0  0  0  0  0
    3.3064   -1.7709    0.0522 C   0  0  0  0  0  0  0  0  0  0  0  0
   -1.4291   -0.9172   -0.2135 C   0  0  0  0  0  0  0  0  0  0  0  0
   -1.1693    2.1889   -0.4106 C   0  0  0  0  0  0  0  0  0  0  0  0
   -2.1839    1.3658   -1.1706 C   0  0  0  0  0  0  0  0  0  0  0  0
   -2.4501   -0.0023   -0.5728 C   0  0  0  0  0  0  0  0  0  0  0  0
    1.0914    2.5466    0.3767 C   0  0  0  0  0  0  0  0  0  0  0  0
   -1.8325   -2.1538    0.3408 C   0  0  0  0  0  0  0  0  0  0  0  0
   -1.5675    3.3680    0.2375 C   0  0  0  0  0  0  0  0  0  0  0  0
   -3.8040   -0.3632   -0.3977 C   0  0  0  0  0  0  0  0  0  0  0  0
   -3.1760   -2.4894    0.5167 C   0  0  0  0  0  0  0  0  0  0  0  0
    0.6840    3.7199    1.0156 C   0  0  0  0  0  0  0  0  0  0  0  0
   -0.6427    4.1306    0.9459 C   0  0  0  0  0  0  0  0  0  0  0  0
   -4.1640   -1.5935    0.1433 C   0  0  0  0  0  0  0  0  0  0  0  0
    5.6148   -1.9352   -0.5934 C   0  0  0  0  0  0  0  0  0  0  0  0
    4.9793   -0.5264    1.2462 C   0  0  0  0  0  0  0  0  0  0  0  0
   -3.5463   -3.8105    1.1016 C   0  0  0  0  0  0  0  0  0  0  0  0
    0.2017    0.5297   -2.0893 H   0  0  0  0  0  0  0  0  0  0  0  0
    2.1711   -0.5345   -2.0010 H   0  0  0  0  0  0  0  0  0  0  0  0
    2.7272    0.8982   -1.1390 H   0  0  0  0  0  0  0  0  0  0  0  0
    2.1748   -0.2121    1.0473 H   0  0  0  0  0  0  0  0  0  0  0  0
    3.1512   -2.4128   -0.8268 H   0  0  0  0  0  0  0  0  0  0  0  0
    3.2912   -2.4604    0.9073 H   0  0  0  0  0  0  0  0  0  0  0  0
   -3.1219    1.9346   -1.2239 H   0  0  0  0  0  0  0  0  0  0  0  0
   -1.8730    1.2511   -2.2164 H   0  0  0  0  0  0  0  0  0  0  0  0
    2.1338    2.2581    0.4687 H   0  0  0  0  0  0  0  0  0  0  0  0
   -1.0811   -2.8848    0.6373 H   0  0  0  0  0  0  0  0  0  0  0  0
   -2.6022    3.6987    0.1955 H   0  0  0  0  0  0  0  0  0  0  0  0
   -4.5964    0.3260   -0.6832 H   0  0  0  0  0  0  0  0  0  0  0  0
    1.4060    4.3109    1.5720 H   0  0  0  0  0  0  0  0  0  0  0  0
   -0.9576    5.0420    1.4453 H   0  0  0  0  0  0  0  0  0  0  0  0
   -5.2158   -1.8358    0.2658 H   0  0  0  0  0  0  0  0  0  0  0  0
    5.3451   -2.2856   -1.5960 H   0  0  0  0  0  0  0  0  0  0  0  0
    5.7871   -2.8095    0.0448 H   0  0  0  0  0  0  0  0  0  0  0  0
    6.5606   -1.3920   -0.6982 H   0  0  0  0  0  0  0  0  0  0  0  0
    4.2620    0.2091    1.6233 H   0  0  0  0  0  0  0  0  0  0  0  0
    5.9349    0.0037    1.1593 H   0  0  0  0  0  0  0  0  0  0  0  0
    5.0972   -1.3152    1.9983 H   0  0  0  0  0  0  0  0  0  0  0  0
   -3.5306   -4.5826    0.3259 H   0  0  0  0  0  0  0  0  0  0  0  0
   -2.8492   -4.0943    1.8974 H   0  0  0  0  0  0  0  0  0  0  0  0
   -4.5470   -3.7853    1.5462 H   0  0  0  0  0  0  0  0  0  0  0  0
  1  2  1  0  0  0  0
  1  6  1  0  0  0  0
  2  4  1  0  0  0  0
  2  9  1  0  0  0  0
  3  8  1  0  0  0  0
  3 21  1  0  0  0  0
  3 22  1  0  0  0  0
  4  5  1  0  0  0  0
  4  7  1  0  0  0  0
  4 24  1  0  0  0  0
  5  6  1  0  0  0  0
  5 25  1  0  0  0  0
  5 26  1  0  0  0  0
  6  8  1  0  0  0  0
  6 27  1  0  0  0  0
  7 10  1  0  0  0  0
  7 13  2  0  0  0  0
  8 28  1  0  0  0  0
  8 29  1  0  0  0  0
  9 12  2  0  0  0  0
  9 14  1  0  0  0  0
 10 11  1  0  0  0  0
 10 15  2  0  0  0  0
 11 12  1  0  0  0  0
 11 30  1  0  0  0  0
 11 31  1  0  0  0  0
 12 16  1  0  0  0  0
 13 18  1  0  0  0  0
 13 32  1  0  0  0  0
 14 17  2  0  0  0  0
 14 33  1  0  0  0  0
 15 19  1  0  0  0  0
 15 34  1  0  0  0  0
 16 20  2  0  0  0  0
 16 35  1  0  0  0  0
 17 20  1  0  0  0  0
 17 23  1  0  0  0  0
 18 19  2  0  0  0  0
 18 36  1  0  0  0  0
 19 37  1  0  0  0  0
 20 38  1  0  0  0  0
 21 39  1  0  0  0  0
 21 40  1  0  0  0  0
 21 41  1  0  0  0  0
 22 42  1  0  0  0  0
 22 43  1  0  0  0  0
 22 44  1  0  0  0  0
 23 45  1  0  0  0  0
 23 46  1  0  0  0  0
 23 47  1  0  0  0  0
M  END
> <PUBCHEM_COMPOUND_CID>
44318842

> <PUBCHEM_CONFORMER_RMSD>
0.6

> <PUBCHEM_CONFORMER_DIVERSEORDER>
1
24
4
6
8
11
13
22
23
18
10
16
19
2
20
17
15
7
3
5
21
12
14
9

> <PUBCHEM_MMFF94_PARTIAL_CHARGES>
29
1 -0.26
10 -0.14
11 0.29
12 -0.14
13 -0.15
14 -0.15
15 -0.15
16 -0.15
17 -0.14
18 -0.15
19 -0.15
2 -0.49
20 -0.15
21 0.27
22 0.27
23 0.14
3 -0.81
32 0.15
33 0.15
34 0.15
35 0.15
36 0.15
37 0.15
38 0.15
4 0.51
6 0.28
7 -0.14
8 0.27
9 0.1

> <PUBCHEM_EFFECTIVE_ROTOR_COUNT>
2.8

> <PUBCHEM_PHARMACOPHORE_FEATURES>
5
1 3 cation
5 1 2 4 5 6 rings
6 7 10 13 15 18 19 rings
6 9 12 14 16 17 20 rings
7 2 4 7 9 10 11 12 rings

> <PUBCHEM_HEAVY_ATOM_COUNT>
23

> <PUBCHEM_ATOM_DEF_STEREO_COUNT>
0

> <PUBCHEM_ATOM_UDEF_STEREO_COUNT>
2

> <PUBCHEM_BOND_DEF_STEREO_COUNT>
0

> <PUBCHEM_BOND_UDEF_STEREO_COUNT>
0

> <PUBCHEM_ISOTOPIC_ATOM_COUNT>
0

> <PUBCHEM_COMPONENT_COUNT>
1

> <PUBCHEM_CACTVS_TAUTO_COUNT>
1

> <PUBCHEM_CONFORMER_ID>
02A4407A00000001

> <PUBCHEM_MMFF94_ENERGY>
77.6964

> <PUBCHEM_FEATURE_SELFOVERLAP>
25.435

> <PUBCHEM_SHAPE_FINGERPRINT>
10319926 262 18124856982057087178
10411042 1 18411702122947836335
10906281 52 18129387007853345133
1100329 8 18339647728871702929
11036077 51 17834110844946730410
114674 6 17684370937820274771
11680986 33 18192705872768099167
12293681 160 17979892948944240861
12403259 226 18191022507312469031
12553582 1 18340222829207918279
12788726 201 18262799558212895386
13027679 85 18411130321145822461
13134695 92 18269271433977333557
13140716 1 18410580625587622217
13540713 4 17899686045768296343
13631057 29 18334013878862458614
138480 1 15240605683717740041
14081887 123 18267008484618477858
14223421 5 17905045103821799893
14363568 33 18054222413283530112
14787075 74 18115587200895574874
14790565 3 17763465010854563009
14866123 147 18267307517479412763
15042514 8 18338525118492349959
15131766 46 15983386747447210314
15420108 30 17484522591963810708
15475509 84 18196960918559556337
15927050 60 17260189320986433860
17980427 23 17561093509872982409
19591789 44 17473544028532805044
20510252 161 18196085543182341960
20600515 1 18336275569573883365
20642791 105 18116144464201994541
21029758 11 18340193125214034253
21033648 29 17560786736922272282
21041028 32 18413110584373420581
22182313 1 17682664470721470391
2297311 6 18340215107094441382
23419403 2 18117812586143666036
23557571 272 18270404871873780798
23558518 356 17908710531495744606
23559900 14 18261104231356799900
23845131 108 17403186898110487081
2748010 2 18047184435047871871
283562 15 18050560747452349485
3091708 16 8919354323064448009
335352 9 18335421262441266655
3421961 26 18048603908627996539
392239 28 18409720777672602080
4409770 3 18261670351481336823
484989 97 18261105280452394485
5104073 3 17979091684652338811
59755656 520 17833275220852688620
7364860 26 18051695735219417671
81228 2 18196948672732101357

> <PUBCHEM_SHAPE_MULTIPOLES>
457.5
8.21
5.02
1.07
9.01
3.88
0.03
-9.84
0.78
-2.54
2.15
0.14
0.17
1.25

> <PUBCHEM_SHAPE_SELFOVERLAP>
991.342

> <PUBCHEM_SHAPE_VOLUME>
251.3

> <PUBCHEM_COORDINATE_TYPE>
2
5
10

$$$$
