44251388
  -OEChem-03232009313D

 46 49  0     0  0  0  0  0  0999 V2000
   -5.8478    3.0889   -0.0206 O   0  0  0  0  0  0  0  0  0  0  0  0
   -1.3150    0.6000    0.0827 O   0  0  0  0  0  0  0  0  0  0  0  0
    4.8247   -1.2240    0.2033 O   0  0  0  0  0  0  0  0  0  0  0  0
   -4.8042   -2.2931   -0.0697 N   0  0  0  0  0  0  0  0  0  0  0  0
   -0.6721   -1.6568    0.0913 N   0  0  0  0  0  0  0  0  0  0  0  0
    2.7358   -0.2139    0.1652 N   0  0  0  0  0  0  0  0  0  0  0  0
    6.1371    1.9906   -0.9988 N   0  0  0  0  0  0  0  0  0  0  0  0
   -4.1496   -0.1611   -0.0113 C   0  0  0  0  0  0  0  0  0  0  0  0
   -5.2674   -0.9966   -0.0656 C   0  0  0  0  0  0  0  0  0  0  0  0
   -3.0014   -1.0011    0.0170 C   0  0  0  0  0  0  0  0  0  0  0  0
   -3.4361   -2.3060   -0.0200 C   0  0  0  0  0  0  0  0  0  0  0  0
   -4.3460    1.2340    0.0042 C   0  0  0  0  0  0  0  0  0  0  0  0
   -6.5769   -0.5047   -0.1054 C   0  0  0  0  0  0  0  0  0  0  0  0
   -5.6502    1.7405   -0.0351 C   0  0  0  0  0  0  0  0  0  0  0  0
   -1.6206   -0.6131    0.0736 C   0  0  0  0  0  0  0  0  0  0  0  0
   -6.7470    0.8827   -0.0892 C   0  0  0  0  0  0  0  0  0  0  0  0
    0.7421   -1.5806    0.1212 C   0  0  0  0  0  0  0  0  0  0  0  0
    1.5220   -2.7318    0.1351 C   0  0  0  0  0  0  0  0  0  0  0  0
    1.3917   -0.3570    0.1370 C   0  0  0  0  0  0  0  0  0  0  0  0
    3.4609   -1.3549    0.1781 C   0  0  0  0  0  0  0  0  0  0  0  0
    2.9081   -2.6254    0.1641 C   0  0  0  0  0  0  0  0  0  0  0  0
    5.3392    0.0571    0.2135 C   0  0  0  0  0  0  0  0  0  0  0  0
    5.6336    0.7366   -0.9576 C   0  0  0  0  0  0  0  0  0  0  0  0
   -4.6852    3.9128    0.0352 C   0  0  0  0  0  0  0  0  0  0  0  0
    5.5767    0.7063    1.4200 C   0  0  0  0  0  0  0  0  0  0  0  0
    5.3984    0.0841   -2.2802 C   0  0  0  0  0  0  0  0  0  0  0  0
    6.0942    1.9969    1.4185 C   0  0  0  0  0  0  0  0  0  0  0  0
    6.3550    2.5896    0.1936 C   0  0  0  0  0  0  0  0  0  0  0  0
   -5.3903   -3.1158   -0.1046 H   0  0  0  0  0  0  0  0  0  0  0  0
   -2.9236   -3.2575   -0.0172 H   0  0  0  0  0  0  0  0  0  0  0  0
   -3.4662    1.8622    0.0468 H   0  0  0  0  0  0  0  0  0  0  0  0
   -7.4314   -1.1717   -0.1475 H   0  0  0  0  0  0  0  0  0  0  0  0
   -7.7543    1.2915   -0.1193 H   0  0  0  0  0  0  0  0  0  0  0  0
   -1.0147   -2.6127    0.0806 H   0  0  0  0  0  0  0  0  0  0  0  0
    1.0622   -3.7165    0.1234 H   0  0  0  0  0  0  0  0  0  0  0  0
    0.8893    0.5993    0.1282 H   0  0  0  0  0  0  0  0  0  0  0  0
    3.5306   -3.5134    0.1746 H   0  0  0  0  0  0  0  0  0  0  0  0
   -5.0273    4.9530    0.0395 H   0  0  0  0  0  0  0  0  0  0  0  0
   -4.0589    3.7884   -0.8548 H   0  0  0  0  0  0  0  0  0  0  0  0
   -4.1255    3.7590    0.9642 H   0  0  0  0  0  0  0  0  0  0  0  0
    5.3621    0.2129    2.3637 H   0  0  0  0  0  0  0  0  0  0  0  0
    4.3275   -0.0580   -2.4544 H   0  0  0  0  0  0  0  0  0  0  0  0
    5.7897    0.7023   -3.0953 H   0  0  0  0  0  0  0  0  0  0  0  0
    5.9048   -0.8852   -2.3294 H   0  0  0  0  0  0  0  0  0  0  0  0
    6.2875    2.5222    2.3468 H   0  0  0  0  0  0  0  0  0  0  0  0
    6.7591    3.5949    0.1379 H   0  0  0  0  0  0  0  0  0  0  0  0
  1 14  1  0  0  0  0
  1 24  1  0  0  0  0
  2 15  2  0  0  0  0
  3 20  1  0  0  0  0
  3 22  1  0  0  0  0
  4  9  1  0  0  0  0
  4 11  1  0  0  0  0
  4 29  1  0  0  0  0
  5 15  1  0  0  0  0
  5 17  1  0  0  0  0
  5 34  1  0  0  0  0
  6 19  1  0  0  0  0
  6 20  2  0  0  0  0
  7 23  1  0  0  0  0
  7 28  2  0  0  0  0
  8  9  2  0  0  0  0
  8 10  1  0  0  0  0
  8 12  1  0  0  0  0
  9 13  1  0  0  0  0
 10 11  2  0  0  0  0
 10 15  1  0  0  0  0
 11 30  1  0  0  0  0
 12 14  2  0  0  0  0
 12 31  1  0  0  0  0
 13 16  2  0  0  0  0
 13 32  1  0  0  0  0
 14 16  1  0  0  0  0
 16 33  1  0  0  0  0
 17 18  1  0  0  0  0
 17 19  2  0  0  0  0
 18 21  2  0  0  0  0
 18 35  1  0  0  0  0
 19 36  1  0  0  0  0
 20 21  1  0  0  0  0
 21 37  1  0  0  0  0
 22 23  2  0  0  0  0
 22 25  1  0  0  0  0
 23 26  1  0  0  0  0
 24 38  1  0  0  0  0
 24 39  1  0  0  0  0
 24 40  1  0  0  0  0
 25 27  2  0  0  0  0
 25 41  1  0  0  0  0
 26 42  1  0  0  0  0
 26 43  1  0  0  0  0
 26 44  1  0  0  0  0
 27 28  1  0  0  0  0
 27 45  1  0  0  0  0
 28 46  1  0  0  0  0
M  END
> <PUBCHEM_COMPOUND_CID>
44251388

> <PUBCHEM_CONFORMER_RMSD>
0.8

> <PUBCHEM_CONFORMER_DIVERSEORDER>
1
50
68
106
100
77
40
86
58
95
7
14
134
82
81
139
120
2
138
122
80
30
19
112
49
17
97
121
91
90
73
78
116
8
12
135
9
75
51
117
142
115
79
24
105
136
42
109
99
13
4
141
27
132
93
56
89
25
35
103
131
48
67
47
5
92
10
66
102
21
119
55
76
74
113
125
20
45
11
69
108
3
43
33
94
110
61
127
39
6
85
126
88
87
23
28
111
128
15
104
26
84
124
114
83
37
52
16
60
107
137
32
57
63
96
101
34
46
62
44
118
70
29
38
22
123
18
64
59
53
72
31
98
65
41
133
54
36
71
129
140
130

> <PUBCHEM_MMFF94_PARTIAL_CHARGES>
39
1 -0.36
10 -0.09
11 -0.3
12 -0.15
13 -0.15
14 0.08
15 0.72
16 -0.15
17 0.12
18 -0.15
19 0.16
2 -0.57
20 0.39
21 -0.15
22 0.08
23 0.17
24 0.28
25 -0.15
26 0.14
27 -0.15
28 0.16
29 0.27
3 -0.17
30 0.15
31 0.15
32 0.15
33 0.15
34 0.37
35 0.15
36 0.15
37 0.15
4 0.03
41 0.15
45 0.15
46 0.15
5 -0.55
6 -0.62
7 -0.62
9 -0.15

> <PUBCHEM_EFFECTIVE_ROTOR_COUNT>
6

> <PUBCHEM_PHARMACOPHORE_FEATURES>
10
1 1 acceptor
1 2 acceptor
1 4 cation
1 4 donor
1 5 donor
1 7 acceptor
5 4 8 9 10 11 rings
6 6 17 18 19 20 21 rings
6 7 22 23 25 27 28 rings
6 8 9 12 13 14 16 rings

> <PUBCHEM_HEAVY_ATOM_COUNT>
28

> <PUBCHEM_ATOM_DEF_STEREO_COUNT>
0

> <PUBCHEM_ATOM_UDEF_STEREO_COUNT>
0

> <PUBCHEM_BOND_DEF_STEREO_COUNT>
0

> <PUBCHEM_BOND_UDEF_STEREO_COUNT>
0

> <PUBCHEM_ISOTOPIC_ATOM_COUNT>
0

> <PUBCHEM_COMPONENT_COUNT>
1

> <PUBCHEM_CACTVS_TAUTO_COUNT>
5

> <PUBCHEM_CONFORMER_ID>
02A338FC00000001

> <PUBCHEM_MMFF94_ENERGY>
91.7022

> <PUBCHEM_FEATURE_SELFOVERLAP>
50.839

> <PUBCHEM_SHAPE_FINGERPRINT>
10 15 18259705614444443163
10554248 39 18267006285279380599
10595046 47 18408882936790781747
10816530 145 17385442146674839741
10835480 77 18411693262450948921
10906281 52 17822025210876837398
11007060 377 18408891720388838107
11297010 23 17332229911538864687
11991303 11 16702013223155100575
125118 31 18334011674858303552
13073987 5 18334013848824081051
13167372 99 18335699421360047154
13533116 47 16370995270921331122
13911987 19 17060615586781038343
14211702 104 9439109970799847525
14528608 73 18341614836867512198
14556957 393 16128107722858117537
14790565 3 18410293631451627922
14933364 13 18412545413810955570
15183329 4 18408044030434650293
15348495 7 11458429063103656494
15400415 2 18410572843223602003
15419008 145 18188474784790289976
18608769 82 18338238284325570827
20058555 10 18410291372404695549
20281389 69 18408602539602332099
20511986 3 18187918461549146519
20691028 202 18195242209802599121
21298829 104 18261960751522109628
21424621 283 18187083944834234211
21585482 111 18261391101061250868
21599406 157 16128650860038101372
23559900 14 18271235123506671177
23569914 152 16838551405810164820
24771293 8 18264765640133884340
2748736 6 18336536162156057500
2838139 119 18342449344533456910
34797466 226 17775291572844502582
3918712 181 18411131476613903064
4073 2 18114466737879993427
4340502 62 16298660655661333722
44249763 50 17702650194193614466
44317340 157 18131354103122436654
445580 37 18411428293096944925
465052 167 7925637713478319930
5080951 261 15936971976567483371
5104073 3 18114177501876059219
5109719 28 18340214114576934712
5265222 85 18202001049686084271
550186 72 18411416228882405277
59682541 52 16630536120228739246
636775 72 18339640152570608968
6898599 12 18343015606202199559

> <PUBCHEM_SHAPE_MULTIPOLES>
538.69
21.51
3.51
1.02
0.98
1.89
-0.32
14.16
-0.91
-2.12
0.25
2.37
0.29
0.29

> <PUBCHEM_SHAPE_SELFOVERLAP>
1193.126

> <PUBCHEM_SHAPE_VOLUME>
287

> <PUBCHEM_COORDINATE_TYPE>
2
5
10

$$$$
