11311204
  -OEChem-03232009313D

 39 40  0     1  0  0  0  0  0999 V2000
   -0.3614    0.3542   -2.0711 O   0  0  0  0  0  0  0  0  0  0  0  0
    5.1082   -0.7090    0.8440 O   0  0  0  0  0  0  0  0  0  0  0  0
   -2.2104   -0.6280   -0.1026 N   0  0  0  0  0  0  0  0  0  0  0  0
   -1.2474    0.4278    0.1732 C   0  0  2  0  0  0  0  0  0  0  0  0
   -3.3432   -0.6059    0.8224 C   0  0  0  0  0  0  0  0  0  0  0  0
   -1.6307   -1.9634    0.0389 C   0  0  0  0  0  0  0  0  0  0  0  0
   -3.9827   -1.9701    0.6098 C   0  0  0  0  0  0  0  0  0  0  0  0
   -2.8565   -2.8630    0.0983 C   0  0  0  0  0  0  0  0  0  0  0  0
   -1.9360    1.7966    0.0539 C   0  0  0  0  0  0  0  0  0  0  0  0
   -0.1394    0.2723   -0.8640 C   0  0  0  0  0  0  0  0  0  0  0  0
   -0.9532    2.9557    0.2512 C   0  0  0  0  0  0  0  0  0  0  0  0
    1.2537    0.0114   -0.4102 C   0  0  0  0  0  0  0  0  0  0  0  0
   -1.6464    4.3016    0.1080 C   0  0  0  0  0  0  0  0  0  0  0  0
    1.6584    0.5086    0.8098 C   0  0  0  0  0  0  0  0  0  0  0  0
    2.0915   -0.7185   -1.2257 C   0  0  0  0  0  0  0  0  0  0  0  0
    2.9642    0.2643    1.2349 C   0  0  0  0  0  0  0  0  0  0  0  0
    3.3973   -0.9630   -0.8007 C   0  0  0  0  0  0  0  0  0  0  0  0
    3.8338   -0.4716    0.4298 C   0  0  0  0  0  0  0  0  0  0  0  0
   -0.8696    0.3099    1.1929 H   0  0  0  0  0  0  0  0  0  0  0  0
   -4.0682    0.1823    0.5978 H   0  0  0  0  0  0  0  0  0  0  0  0
   -3.0209   -0.5074    1.8670 H   0  0  0  0  0  0  0  0  0  0  0  0
   -1.0561   -2.0649    0.9689 H   0  0  0  0  0  0  0  0  0  0  0  0
   -0.9901   -2.2477   -0.8019 H   0  0  0  0  0  0  0  0  0  0  0  0
   -4.7808   -1.9148   -0.1400 H   0  0  0  0  0  0  0  0  0  0  0  0
   -4.4186   -2.3581    1.5360 H   0  0  0  0  0  0  0  0  0  0  0  0
   -2.6916   -3.7233    0.7550 H   0  0  0  0  0  0  0  0  0  0  0  0
   -3.1097   -3.2441   -0.8980 H   0  0  0  0  0  0  0  0  0  0  0  0
   -2.7259    1.9050    0.8061 H   0  0  0  0  0  0  0  0  0  0  0  0
   -2.4106    1.8982   -0.9314 H   0  0  0  0  0  0  0  0  0  0  0  0
   -0.1412    2.9079   -0.4819 H   0  0  0  0  0  0  0  0  0  0  0  0
   -0.5036    2.8956    1.2485 H   0  0  0  0  0  0  0  0  0  0  0  0
   -2.4451    4.4129    0.8481 H   0  0  0  0  0  0  0  0  0  0  0  0
   -0.9295    5.1151    0.2577 H   0  0  0  0  0  0  0  0  0  0  0  0
   -2.0836    4.4136   -0.8894 H   0  0  0  0  0  0  0  0  0  0  0  0
    1.0268    1.1087    1.4530 H   0  0  0  0  0  0  0  0  0  0  0  0
    1.7639   -1.1123   -2.1830 H   0  0  0  0  0  0  0  0  0  0  0  0
    3.2945    0.6580    2.1925 H   0  0  0  0  0  0  0  0  0  0  0  0
    4.0696   -1.5379   -1.4317 H   0  0  0  0  0  0  0  0  0  0  0  0
    5.2381   -0.2970    1.7155 H   0  0  0  0  0  0  0  0  0  0  0  0
  1 10  2  0  0  0  0
  2 18  1  0  0  0  0
  2 39  1  0  0  0  0
  3  4  1  0  0  0  0
  3  5  1  0  0  0  0
  3  6  1  0  0  0  0
  4  9  1  0  0  0  0
  4 10  1  0  0  0  0
  4 19  1  0  0  0  0
  5  7  1  0  0  0  0
  5 20  1  0  0  0  0
  5 21  1  0  0  0  0
  6  8  1  0  0  0  0
  6 22  1  0  0  0  0
  6 23  1  0  0  0  0
  7  8  1  0  0  0  0
  7 24  1  0  0  0  0
  7 25  1  0  0  0  0
  8 26  1  0  0  0  0
  8 27  1  0  0  0  0
  9 11  1  0  0  0  0
  9 28  1  0  0  0  0
  9 29  1  0  0  0  0
 10 12  1  0  0  0  0
 11 13  1  0  0  0  0
 11 30  1  0  0  0  0
 11 31  1  0  0  0  0
 12 14  2  0  0  0  0
 12 15  1  0  0  0  0
 13 32  1  0  0  0  0
 13 33  1  0  0  0  0
 13 34  1  0  0  0  0
 14 16  1  0  0  0  0
 14 35  1  0  0  0  0
 15 17  2  0  0  0  0
 15 36  1  0  0  0  0
 16 18  2  0  0  0  0
 16 37  1  0  0  0  0
 17 18  1  0  0  0  0
 17 38  1  0  0  0  0
M  END
> <PUBCHEM_COMPOUND_CID>
11311204

> <PUBCHEM_CONFORMER_RMSD>
0.8

> <PUBCHEM_CONFORMER_DIVERSEORDER>
1
12
20
22
16
17
24
13
23
8
4
14
5
11
9
6
15
21
10
3
18
19
7
2

> <PUBCHEM_MMFF94_PARTIAL_CHARGES>
18
1 -0.57
10 0.42
12 0.09
14 -0.15
15 -0.15
16 -0.15
17 -0.15
18 0.08
2 -0.53
3 -0.81
35 0.15
36 0.15
37 0.15
38 0.15
39 0.45
4 0.33
5 0.27
6 0.27

> <PUBCHEM_EFFECTIVE_ROTOR_COUNT>
6

> <PUBCHEM_PHARMACOPHORE_FEATURES>
6
1 1 acceptor
1 13 hydrophobe
1 2 donor
1 3 cation
5 3 5 6 7 8 rings
6 12 14 15 16 17 18 rings

> <PUBCHEM_HEAVY_ATOM_COUNT>
18

> <PUBCHEM_ATOM_DEF_STEREO_COUNT>
0

> <PUBCHEM_ATOM_UDEF_STEREO_COUNT>
1

> <PUBCHEM_BOND_DEF_STEREO_COUNT>
0

> <PUBCHEM_BOND_UDEF_STEREO_COUNT>
0

> <PUBCHEM_ISOTOPIC_ATOM_COUNT>
0

> <PUBCHEM_COMPONENT_COUNT>
1

> <PUBCHEM_CACTVS_TAUTO_COUNT>
7

> <PUBCHEM_CONFORMER_ID>
00AC986400000001

> <PUBCHEM_MMFF94_ENERGY>
37.4068

> <PUBCHEM_FEATURE_SELFOVERLAP>
30.446

> <PUBCHEM_SHAPE_FINGERPRINT>
10366900 7 18131343103373373206
11357001 24 18410290281250341713
11578080 2 17605818425665519965
11646440 116 18270975570560270441
12173636 292 18122060905715454725
12251169 10 17346041181004268999
12363563 72 18264775522352400811
12500047 106 18122627145988111092
12532896 13 17908701731039579285
12553582 1 18266757928990375343
12633257 1 17988936594869092683
12788726 201 18261692427080507553
12824470 246 17821997705869156082
13140716 1 18410298046799360249
13294875 104 16973913325988254688
13583140 156 17987213583461305530
136203 1 18338238163512364441
14178342 30 18263077722091313874
14289901 80 18335143072966493312
14787075 74 17753604943322337040
15653759 3 18273217486762442658
15885798 251 18338524131156475667
16752209 62 18113607981060173287
16945 1 18338806623618227909
17780758 139 18190721065417746458
17844478 74 18130786763427361448
17980427 26 17043156178875599533
18186145 218 12035715531549334559
18219364 16 16917058937236456792
19049666 15 17985836917066391078
19591789 44 16681475724385273812
200 152 15719387339502147298
20361792 2 17240761838864469999
20510252 161 18341897337940304849
20600515 1 18200612370652492249
20671657 53 17095521854693498551
21421861 104 17187012432417106043
21524375 3 17479730520769002717
21650355 55 18410856581499722057
23366157 5 17613725134319021669
23402539 116 18272362062922076285
23419403 2 17611992239273953077
23493267 7 18126561224573113728
23503958 8 18262231115291487154
23557571 272 18411135840168046688
23559900 14 18269848544654363534
23845131 108 17619927054347500185
3091708 16 8989726344676809305
5902787 121 18191871343031465771
6049 1 17917441869554467436
6442390 28 17836662824810817681
7364860 26 17763192740482358197
77188 2 18265895946355295425
81228 2 18340781351197899777
90316 7 18411709794017493689

> <PUBCHEM_SHAPE_MULTIPOLES>
353.71
7.17
3.5
1.19
5.38
4.18
-0.32
-4.78
2.3
-4.65
0.23
0.62
-0.07
0.48

> <PUBCHEM_SHAPE_SELFOVERLAP>
734.625

> <PUBCHEM_SHAPE_VOLUME>
204.2

> <PUBCHEM_COORDINATE_TYPE>
2
5
10

$$$$
