46884856
  -OEChem-03232009323D

 71 74  0     1  0  0  0  0  0999 V2000
    3.0306   -3.2579   -1.6112 F   0  0  0  0  0  0  0  0  0  0  0  0
    5.3229    0.1996    1.9537 F   0  0  0  0  0  0  0  0  0  0  0  0
    4.5724    2.2598   -1.1386 F   0  0  0  0  0  0  0  0  0  0  0  0
    3.0183    1.0630   -2.0770 F   0  0  0  0  0  0  0  0  0  0  0  0
    3.2349    3.1567   -2.5995 F   0  0  0  0  0  0  0  0  0  0  0  0
    2.2449   -4.2632    1.4547 O   0  0  0  0  0  0  0  0  0  0  0  0
   -3.5333    0.5584    1.0696 O   0  0  0  0  0  0  0  0  0  0  0  0
   -1.7621    3.4200   -1.0400 O   0  0  0  0  0  0  0  0  0  0  0  0
   -4.7122   -1.5121   -0.5157 N   0  0  1  0  0  0  0  0  0  0  0  0
    0.6735   -2.6501    0.8258 N   0  0  0  0  0  0  0  0  0  0  0  0
   -5.3277    1.6283    0.0484 N   0  0  0  0  0  0  0  0  0  0  0  0
   -2.1982    2.9493    1.1898 N   0  0  0  0  0  0  0  0  0  0  0  0
   -1.8640   -2.2320   -0.5063 C   0  0  0  0  0  0  0  0  0  0  0  0
   -2.7770   -2.3917   -1.7193 C   0  0  0  0  0  0  0  0  0  0  0  0
   -4.2196   -2.6395   -1.2932 C   0  0  0  0  0  0  0  0  0  0  0  0
   -6.0084    0.4542   -0.4371 C   0  0  1  0  0  0  0  0  0  0  0  0
   -1.4591   -3.6032    0.0581 C   0  0  0  0  0  0  0  0  0  0  0  0
   -0.6148   -1.4118   -0.8666 C   0  0  0  0  0  0  0  0  0  0  0  0
   -5.1239   -0.3866   -1.3594 C   0  0  0  0  0  0  0  0  0  0  0  0
   -5.8937   -1.8520    0.2750 C   0  0  0  0  0  0  0  0  0  0  0  0
   -6.4000   -0.4847    0.7066 C   0  0  0  0  0  0  0  0  0  0  0  0
    0.3391   -1.3123    0.3214 C   0  0  0  0  0  0  0  0  0  0  0  0
   -0.4795   -3.4583    1.2212 C   0  0  0  0  0  0  0  0  0  0  0  0
    1.9637   -3.1589    0.9914 C   0  0  0  0  0  0  0  0  0  0  0  0
   -4.1368    1.5850    0.7676 C   0  0  0  0  0  0  0  0  0  0  0  0
    3.0966   -2.3245    0.5717 C   0  0  0  0  0  0  0  0  0  0  0  0
   -3.6279    2.9724    1.0960 C   0  0  0  0  0  0  0  0  0  0  0  0
    3.5864   -2.4132   -0.7313 C   0  0  0  0  0  0  0  0  0  0  0  0
    3.6831   -1.4419    1.4789 C   0  0  0  0  0  0  0  0  0  0  0  0
    4.7596   -0.6480    1.0829 C   0  0  0  0  0  0  0  0  0  0  0  0
    4.6629   -1.6191   -1.1274 C   0  0  0  0  0  0  0  0  0  0  0  0
    5.2492   -0.7365   -0.2204 C   0  0  0  0  0  0  0  0  0  0  0  0
   -1.3660    3.1786    0.0971 C   0  0  0  0  0  0  0  0  0  0  0  0
    0.0947    3.0934    0.3541 C   0  0  0  0  0  0  0  0  0  0  0  0
    0.9657    2.7466   -0.6788 C   0  0  0  0  0  0  0  0  0  0  0  0
    0.5953    3.3600    1.6286 C   0  0  0  0  0  0  0  0  0  0  0  0
    2.3372    2.6662   -0.4373 C   0  0  0  0  0  0  0  0  0  0  0  0
    1.9667    3.2793    1.8702 C   0  0  0  0  0  0  0  0  0  0  0  0
    2.8377    2.9326    0.8372 C   0  0  0  0  0  0  0  0  0  0  0  0
    3.2687    2.2942   -1.5410 C   0  0  0  0  0  0  0  0  0  0  0  0
   -2.3716   -1.6827    0.2944 H   0  0  0  0  0  0  0  0  0  0  0  0
   -2.4365   -3.2216   -2.3509 H   0  0  0  0  0  0  0  0  0  0  0  0
   -2.7325   -1.4965   -2.3519 H   0  0  0  0  0  0  0  0  0  0  0  0
   -4.2533   -3.5550   -0.6901 H   0  0  0  0  0  0  0  0  0  0  0  0
   -4.8456   -2.8341   -2.1732 H   0  0  0  0  0  0  0  0  0  0  0  0
   -6.8978    0.8014   -0.9750 H   0  0  0  0  0  0  0  0  0  0  0  0
   -0.0948   -1.8832   -1.7105 H   0  0  0  0  0  0  0  0  0  0  0  0
   -0.9038   -0.4030   -1.1846 H   0  0  0  0  0  0  0  0  0  0  0  0
   -2.3391   -4.1569    0.4023 H   0  0  0  0  0  0  0  0  0  0  0  0
   -0.9872   -4.2029   -0.7311 H   0  0  0  0  0  0  0  0  0  0  0  0
   -5.7300   -0.7324   -2.2073 H   0  0  0  0  0  0  0  0  0  0  0  0
   -4.2698    0.1714   -1.7575 H   0  0  0  0  0  0  0  0  0  0  0  0
   -5.6483   -2.4792    1.1378 H   0  0  0  0  0  0  0  0  0  0  0  0
   -6.6541   -2.3636   -0.3290 H   0  0  0  0  0  0  0  0  0  0  0  0
   -5.9618   -0.1954    1.6686 H   0  0  0  0  0  0  0  0  0  0  0  0
   -7.4868   -0.5015    0.8447 H   0  0  0  0  0  0  0  0  0  0  0  0
   -0.1289   -0.7598    1.1451 H   0  0  0  0  0  0  0  0  0  0  0  0
    1.2297   -0.7546    0.0248 H   0  0  0  0  0  0  0  0  0  0  0  0
   -0.9595   -2.9560    2.0693 H   0  0  0  0  0  0  0  0  0  0  0  0
   -0.1616   -4.4485    1.5627 H   0  0  0  0  0  0  0  0  0  0  0  0
   -5.7529    2.5298   -0.1474 H   0  0  0  0  0  0  0  0  0  0  0  0
   -4.0323    3.2748    2.0663 H   0  0  0  0  0  0  0  0  0  0  0  0
   -3.9346    3.6949    0.3334 H   0  0  0  0  0  0  0  0  0  0  0  0
    3.3090   -1.3638    2.4963 H   0  0  0  0  0  0  0  0  0  0  0  0
   -1.8057    2.6773    2.0847 H   0  0  0  0  0  0  0  0  0  0  0  0
    5.0433   -1.6873   -2.1422 H   0  0  0  0  0  0  0  0  0  0  0  0
    6.0865   -0.1174   -0.5286 H   0  0  0  0  0  0  0  0  0  0  0  0
    0.5850    2.5307   -1.6744 H   0  0  0  0  0  0  0  0  0  0  0  0
   -0.0444    3.6624    2.4522 H   0  0  0  0  0  0  0  0  0  0  0  0
    2.3575    3.4926    2.8609 H   0  0  0  0  0  0  0  0  0  0  0  0
    3.9024    2.8758    1.0462 H   0  0  0  0  0  0  0  0  0  0  0  0
  1 28  1  0  0  0  0
  2 30  1  0  0  0  0
  3 40  1  0  0  0  0
  4 40  1  0  0  0  0
  5 40  1  0  0  0  0
  6 24  2  0  0  0  0
  7 25  2  0  0  0  0
  8 33  2  0  0  0  0
  9 15  1  0  0  0  0
  9 19  1  0  0  0  0
  9 20  1  0  0  0  0
 10 22  1  0  0  0  0
 10 23  1  0  0  0  0
 10 24  1  0  0  0  0
 11 16  1  0  0  0  0
 11 25  1  0  0  0  0
 11 61  1  0  0  0  0
 12 27  1  0  0  0  0
 12 33  1  0  0  0  0
 12 65  1  0  0  0  0
 13 14  1  0  0  0  0
 13 17  1  0  0  0  0
 13 18  1  0  0  0  0
 13 41  1  0  0  0  0
 14 15  1  0  0  0  0
 14 42  1  0  0  0  0
 14 43  1  0  0  0  0
 15 44  1  0  0  0  0
 15 45  1  0  0  0  0
 16 19  1  0  0  0  0
 16 21  1  0  0  0  0
 16 46  1  0  0  0  0
 17 23  1  0  0  0  0
 17 49  1  0  0  0  0
 17 50  1  0  0  0  0
 18 22  1  0  0  0  0
 18 47  1  0  0  0  0
 18 48  1  0  0  0  0
 19 51  1  0  0  0  0
 19 52  1  0  0  0  0
 20 21  1  0  0  0  0
 20 53  1  0  0  0  0
 20 54  1  0  0  0  0
 21 55  1  0  0  0  0
 21 56  1  0  0  0  0
 22 57  1  0  0  0  0
 22 58  1  0  0  0  0
 23 59  1  0  0  0  0
 23 60  1  0  0  0  0
 24 26  1  0  0  0  0
 25 27  1  0  0  0  0
 26 28  2  0  0  0  0
 26 29  1  0  0  0  0
 27 62  1  0  0  0  0
 27 63  1  0  0  0  0
 28 31  1  0  0  0  0
 29 30  2  0  0  0  0
 29 64  1  0  0  0  0
 30 32  1  0  0  0  0
 31 32  2  0  0  0  0
 31 66  1  0  0  0  0
 32 67  1  0  0  0  0
 33 34  1  0  0  0  0
 34 35  2  0  0  0  0
 34 36  1  0  0  0  0
 35 37  1  0  0  0  0
 35 68  1  0  0  0  0
 36 38  2  0  0  0  0
 36 69  1  0  0  0  0
 37 39  2  0  0  0  0
 37 40  1  0  0  0  0
 38 39  1  0  0  0  0
 38 70  1  0  0  0  0
 39 71  1  0  0  0  0
M  END
> <PUBCHEM_COMPOUND_CID>
46884856

> <PUBCHEM_CONFORMER_RMSD>
1.6

> <PUBCHEM_CONFORMER_DIVERSEORDER>
7
49
136
35
147
130
16
39
60
75
129
3
55
72
140
30
120
80
76
117
69
96
144
98
99
109
74
11
138
42
139
5
79
97
124
84
143
127
23
131
44
83
134
36
1
87
142
104
116
145
52
113
38
31
135
118
141
68
63
17
24
6
47
13
126
91
114
89
125
29
93
46
41
121
64
32
105
70
48
37
22
132
45
90
102
71
66
94
128
148
112
122
27
15
137
111
59
61
4
53
95
57
20
10
14
110
51
86
81
54
119
133
56
146
62
65
58
40
19
115
106
100
82
77
28
50
34
107
103
9
67
123
43
25
101
85
73
108
33
12
18
92
78
149
26
2
8
21
88

> <PUBCHEM_MMFF94_PARTIAL_CHARGES>
44
1 -0.19
10 -0.66
11 -0.73
12 -0.73
15 0.27
16 0.3
19 0.27
2 -0.19
20 0.27
22 0.3
23 0.3
24 0.54
25 0.57
26 0.09
27 0.36
28 0.19
29 -0.15
3 -0.34
30 0.19
31 -0.15
32 -0.15
33 0.54
34 0.09
35 -0.15
36 -0.15
37 -0.14
38 -0.15
39 -0.15
4 -0.34
40 1.16
5 -0.34
6 -0.57
61 0.37
64 0.15
65 0.37
66 0.15
67 0.15
68 0.15
69 0.15
7 -0.57
70 0.15
71 0.15
8 -0.57
9 -0.81

> <PUBCHEM_EFFECTIVE_ROTOR_COUNT>
14.2

> <PUBCHEM_PHARMACOPHORE_FEATURES>
10
1 11 donor
1 12 donor
1 6 acceptor
1 7 acceptor
1 8 acceptor
1 9 cation
5 9 16 19 20 21 rings
6 10 13 17 18 22 23 rings
6 26 28 29 30 31 32 rings
6 34 35 36 37 38 39 rings

> <PUBCHEM_HEAVY_ATOM_COUNT>
40

> <PUBCHEM_ATOM_DEF_STEREO_COUNT>
1

> <PUBCHEM_ATOM_UDEF_STEREO_COUNT>
0

> <PUBCHEM_BOND_DEF_STEREO_COUNT>
0

> <PUBCHEM_BOND_UDEF_STEREO_COUNT>
0

> <PUBCHEM_ISOTOPIC_ATOM_COUNT>
0

> <PUBCHEM_COMPONENT_COUNT>
1

> <PUBCHEM_CACTVS_TAUTO_COUNT>
4

> <PUBCHEM_CONFORMER_ID>
02CB67F800000007

> <PUBCHEM_MMFF94_ENERGY>
83.7091

> <PUBCHEM_FEATURE_SELFOVERLAP>
50.747

> <PUBCHEM_SHAPE_FINGERPRINT>
10439779 11 17834659875375161464
10581848 31 18412827992731658204
10864689 126 17838334086204581897
11513181 2 18055931895786518614
13165053 182 17174941852512977084
13165054 235 18338781382248456622
14040221 10 16987744336810806481
14040221 299 16832059824862170974
14068700 675 18340212869769622004
15001296 14 18408882923810557649
15264996 142 17688616869200525779
15264996 151 18260267434895312105
15297060 5 17558836078761287603
15351339 4 18266170811266158859
15484559 13 14889266295602469327
15781502 13 17196314932496125846
15968369 153 18272369831832125609
15975801 100 17108501289429213366
17627616 140 18409729586550246739
20764821 26 18335988682685204256
338550 245 18409163329013513321
373842 8 18337109072660871603
437795 70 18128839468421683422
44344687 77 16975608241139881687
45266715 3 17910647068215690453
463206 1 18412265046967774441
469060 322 17749956527085398780
9961470 85 18196359549437980225

> <PUBCHEM_SHAPE_MULTIPOLES>
749.28
12.96
6.45
1.82
10.49
1.09
0.38
-2.41
0.82
-2.06
-0.86
-1.49
0.43
-1.99

> <PUBCHEM_SHAPE_SELFOVERLAP>
1597.538

> <PUBCHEM_SHAPE_VOLUME>
414.9

> <PUBCHEM_COORDINATE_TYPE>
2
5
10

$$$$
