11743399
  -OEChem-03232009323D

 55 57  0     1  0  0  0  0  0999 V2000
    8.1971    1.7911    1.1722 Cl  0  0  0  0  0  0  0  0  0  0  0  0
   -9.0601   -0.8733   -1.0970 F   0  0  0  0  0  0  0  0  0  0  0  0
    0.5102    0.1540   -2.3915 O   0  0  0  0  0  0  0  0  0  0  0  0
    6.4392   -2.7021    0.5064 O   0  0  0  0  0  0  0  0  0  0  0  0
   -3.2614    0.3162    0.9152 N   0  0  2  0  0  0  0  0  0  0  0  0
   -0.7152    0.0832   -0.4124 N   0  0  0  0  0  0  0  0  0  0  0  0
    4.5956   -1.4974   -0.3334 N   0  0  0  0  0  0  0  0  0  0  0  0
   -0.7897    0.0106    1.0642 C   0  0  1  0  0  0  0  0  0  0  0  0
   -2.0325    0.7530    1.5909 C   0  0  0  0  0  0  0  0  0  0  0  0
   -3.1524    0.5757   -0.5258 C   0  0  0  0  0  0  0  0  0  0  0  0
   -1.9705   -0.1844   -1.1219 C   0  0  0  0  0  0  0  0  0  0  0  0
   -4.4263    1.0020    1.4731 C   0  0  0  0  0  0  0  0  0  0  0  0
   -0.7465   -1.4459    1.5367 C   0  0  0  0  0  0  0  0  0  0  0  0
    0.4525    0.2316   -1.1627 C   0  0  0  0  0  0  0  0  0  0  0  0
   -5.6624    0.5012    0.7874 C   0  0  0  0  0  0  0  0  0  0  0  0
    1.7118    0.4982   -0.4381 C   0  0  0  0  0  0  0  0  0  0  0  0
   -6.1197    1.1389   -0.3609 C   0  0  0  0  0  0  0  0  0  0  0  0
   -6.3419   -0.5960    1.3057 C   0  0  0  0  0  0  0  0  0  0  0  0
    2.8263    0.6276   -1.1561 C   0  0  0  0  0  0  0  0  0  0  0  0
   -7.2700    0.6740   -0.9983 C   0  0  0  0  0  0  0  0  0  0  0  0
   -7.4920   -1.0611    0.6682 C   0  0  0  0  0  0  0  0  0  0  0  0
   -7.9563   -0.4260   -0.4838 C   0  0  0  0  0  0  0  0  0  0  0  0
    4.1582    0.8843   -0.5799 C   0  0  0  0  0  0  0  0  0  0  0  0
    4.9833   -0.1611   -0.1936 C   0  0  0  0  0  0  0  0  0  0  0  0
    4.5579    2.2049   -0.4347 C   0  0  0  0  0  0  0  0  0  0  0  0
    6.2368    0.1198    0.3502 C   0  0  0  0  0  0  0  0  0  0  0  0
    5.8115    2.4858    0.1088 C   0  0  0  0  0  0  0  0  0  0  0  0
    6.6510    1.4432    0.5012 C   0  0  0  0  0  0  0  0  0  0  0  0
    5.3188   -2.6450    0.0100 C   0  0  0  0  0  0  0  0  0  0  0  0
    4.5468   -3.9029   -0.3002 C   0  0  0  0  0  0  0  0  0  0  0  0
    0.0633    0.5206    1.5122 H   0  0  0  0  0  0  0  0  0  0  0  0
   -2.1164    0.5820    2.6716 H   0  0  0  0  0  0  0  0  0  0  0  0
   -1.8887    1.8332    1.4482 H   0  0  0  0  0  0  0  0  0  0  0  0
   -4.0063    0.1981   -1.0913 H   0  0  0  0  0  0  0  0  0  0  0  0
   -3.0423    1.6490   -0.7300 H   0  0  0  0  0  0  0  0  0  0  0  0
   -1.8710    0.0730   -2.1820 H   0  0  0  0  0  0  0  0  0  0  0  0
   -2.1441   -1.2665   -1.0729 H   0  0  0  0  0  0  0  0  0  0  0  0
   -4.5066    0.8031    2.5498 H   0  0  0  0  0  0  0  0  0  0  0  0
   -4.3499    2.0929    1.3681 H   0  0  0  0  0  0  0  0  0  0  0  0
   -1.5995   -2.0235    1.1659 H   0  0  0  0  0  0  0  0  0  0  0  0
    0.1643   -1.9400    1.1816 H   0  0  0  0  0  0  0  0  0  0  0  0
   -0.7538   -1.4986    2.6303 H   0  0  0  0  0  0  0  0  0  0  0  0
    1.7654    0.5739    0.6367 H   0  0  0  0  0  0  0  0  0  0  0  0
   -5.6110    2.0106   -0.7638 H   0  0  0  0  0  0  0  0  0  0  0  0
   -5.9891   -1.1001    2.2013 H   0  0  0  0  0  0  0  0  0  0  0  0
    2.8361    0.5544   -2.2406 H   0  0  0  0  0  0  0  0  0  0  0  0
   -7.6342    1.1709   -1.8927 H   0  0  0  0  0  0  0  0  0  0  0  0
   -8.0261   -1.9179    1.0680 H   0  0  0  0  0  0  0  0  0  0  0  0
    3.9147    3.0277   -0.7362 H   0  0  0  0  0  0  0  0  0  0  0  0
    6.9374   -0.6356    0.6749 H   0  0  0  0  0  0  0  0  0  0  0  0
    6.1209    3.5219    0.2207 H   0  0  0  0  0  0  0  0  0  0  0  0
    3.6758   -1.6555   -0.7368 H   0  0  0  0  0  0  0  0  0  0  0  0
    4.3244   -3.9469   -1.3702 H   0  0  0  0  0  0  0  0  0  0  0  0
    5.1400   -4.7793   -0.0250 H   0  0  0  0  0  0  0  0  0  0  0  0
    3.6125   -3.9136    0.2682 H   0  0  0  0  0  0  0  0  0  0  0  0
  1 28  1  0  0  0  0
  2 22  1  0  0  0  0
  3 14  2  0  0  0  0
  4 29  2  0  0  0  0
  5  9  1  0  0  0  0
  5 10  1  0  0  0  0
  5 12  1  0  0  0  0
  6  8  1  0  0  0  0
  6 11  1  0  0  0  0
  6 14  1  0  0  0  0
  7 24  1  0  0  0  0
  7 29  1  0  0  0  0
  7 52  1  0  0  0  0
  8  9  1  0  0  0  0
  8 13  1  0  0  0  0
  8 31  1  0  0  0  0
  9 32  1  0  0  0  0
  9 33  1  0  0  0  0
 10 11  1  0  0  0  0
 10 34  1  0  0  0  0
 10 35  1  0  0  0  0
 11 36  1  0  0  0  0
 11 37  1  0  0  0  0
 12 15  1  0  0  0  0
 12 38  1  0  0  0  0
 12 39  1  0  0  0  0
 13 40  1  0  0  0  0
 13 41  1  0  0  0  0
 13 42  1  0  0  0  0
 14 16  1  0  0  0  0
 15 17  2  0  0  0  0
 15 18  1  0  0  0  0
 16 19  2  0  0  0  0
 16 43  1  0  0  0  0
 17 20  1  0  0  0  0
 17 44  1  0  0  0  0
 18 21  2  0  0  0  0
 18 45  1  0  0  0  0
 19 23  1  0  0  0  0
 19 46  1  0  0  0  0
 20 22  2  0  0  0  0
 20 47  1  0  0  0  0
 21 22  1  0  0  0  0
 21 48  1  0  0  0  0
 23 24  2  0  0  0  0
 23 25  1  0  0  0  0
 24 26  1  0  0  0  0
 25 27  2  0  0  0  0
 25 49  1  0  0  0  0
 26 28  2  0  0  0  0
 26 50  1  0  0  0  0
 27 28  1  0  0  0  0
 27 51  1  0  0  0  0
 29 30  1  0  0  0  0
 30 53  1  0  0  0  0
 30 54  1  0  0  0  0
 30 55  1  0  0  0  0
M  END
> <PUBCHEM_COMPOUND_CID>
11743399

> <PUBCHEM_CONFORMER_RMSD>
1

> <PUBCHEM_CONFORMER_DIVERSEORDER>
10
138
24
112
8
53
87
136
35
113
141
30
139
45
137
119
39
101
147
81
102
109
142
114
71
32
84
106
42
49
117
121
44
26
118
61
12
86
100
127
145
40
31
96
46
54
38
11
14
125
135
50
140
70
124
115
17
80
48
1
134
18
60
131
92
6
34
132
75
107
94
13
15
133
63
58
99
59
41
129
73
90
67
110
55
66
82
95
72
128
89
123
83
47
76
52
88
122
19
37
22
20
143
108
27
28
69
78
111
105
126
93
74
77
116
33
51
23
16
79
68
91
2
146
57
120
130
5
4
98
62
3
56
97
65
103
144
29
43
64
21
85
36
104
25
9
7

> <PUBCHEM_MMFF94_PARTIAL_CHARGES>
39
1 -0.18
10 0.27
11 0.3
12 0.41
14 0.62
15 -0.14
16 -0.14
17 -0.15
18 -0.15
19 -0.18
2 -0.19
20 -0.15
21 -0.15
22 0.19
23 0.03
24 0.12
25 -0.15
26 -0.15
27 -0.15
28 0.18
29 0.57
3 -0.57
30 0.06
4 -0.57
43 0.15
44 0.15
45 0.15
46 0.15
47 0.15
48 0.15
49 0.15
5 -0.81
50 0.15
51 0.15
52 0.37
6 -0.66
7 -0.55
8 0.3
9 0.27

> <PUBCHEM_EFFECTIVE_ROTOR_COUNT>
8.2

> <PUBCHEM_PHARMACOPHORE_FEATURES>
7
1 3 acceptor
1 4 acceptor
1 5 cation
1 7 donor
6 15 17 18 20 21 22 rings
6 23 24 25 26 27 28 rings
6 5 6 8 9 10 11 rings

> <PUBCHEM_HEAVY_ATOM_COUNT>
30

> <PUBCHEM_ATOM_DEF_STEREO_COUNT>
1

> <PUBCHEM_ATOM_UDEF_STEREO_COUNT>
0

> <PUBCHEM_BOND_DEF_STEREO_COUNT>
1

> <PUBCHEM_BOND_UDEF_STEREO_COUNT>
0

> <PUBCHEM_ISOTOPIC_ATOM_COUNT>
0

> <PUBCHEM_COMPONENT_COUNT>
1

> <PUBCHEM_CACTVS_TAUTO_COUNT>
3

> <PUBCHEM_CONFORMER_ID>
00B330A70000000A

> <PUBCHEM_MMFF94_ENERGY>
89.1645

> <PUBCHEM_FEATURE_SELFOVERLAP>
35.522

> <PUBCHEM_SHAPE_FINGERPRINT>
10 15 17417813962975734429
10162869 55 18341043124737702236
10951579 204 16734107821551601847
12082328 90 18410571774462106045
12373685 5 18341042012473352854
13533116 47 18337962199252624226
13560911 43 17274821359266478312
13782708 43 18187653448944646159
13914758 101 17968097487191175869
14118638 360 18201445753053167688
14251764 18 17846781823109088272
14294032 229 14491022750203554951
14849402 71 11887655304960748963
14856354 85 12103845671029026473
15183329 4 17060618906295061473
15320294 125 15068886600030223200
1577012 14 17988372485501452025
15849732 13 17822010943206177973
173720 79 17489868198175189871
19301679 30 18188763952111397544
20105231 36 11167947978377015677
20157964 124 18412830187934368752
20505436 4 17775000237609129582
21049683 271 16056880269179711745
21130935 74 18410580543878184051
21150785 3 17275106158489813793
21344244 78 18059003983631589192
21403212 168 17240194452214892449
21521721 280 10952044550646424517
21792934 111 15791722053425561252
21792965 131 18271792554485965023
23081809 10 17845943948388938681
23569943 247 17606115074392558875
354706 109 18334568088404881530
3633792 109 18261110725779965609
3663271 9 18272377446925316033
4258327 124 17345759745115138072
4874694 18 18335415802699362123
5381727 24 16630811007015898140
5758199 1 15482398607851990765
59755656 215 16877944906353216491
6394761 36 14273730772637230793
6441014 3 17255680794816440410
9689198 14 10735877275055052141
9831232 110 17458352922464628746
99344 41 18335419088412549475

> <PUBCHEM_SHAPE_MULTIPOLES>
585.3
26.66
2.55
1.48
20.95
2.51
-0.04
-0.86
2.18
-7.44
0.16
1.13
-0.14
0.57

> <PUBCHEM_SHAPE_SELFOVERLAP>
1231.327

> <PUBCHEM_SHAPE_VOLUME>
330

> <PUBCHEM_COORDINATE_TYPE>
2
5
10

$$$$
