10246054
  -OEChem-03232009313D

 44 47  0     1  0  0  0  0  0999 V2000
    2.1074    4.0976   -1.3067 F   0  0  0  0  0  0  0  0  0  0  0  0
   -4.0268   -3.2926   -1.2971 F   0  0  0  0  0  0  0  0  0  0  0  0
    0.6078   -1.8389   -0.1931 O   0  0  0  0  0  0  0  0  0  0  0  0
   -0.2488   -0.8705    0.3640 N   0  0  3  0  0  0  0  0  0  0  0  0
    4.2777   -1.8540    0.1643 N   0  0  0  0  0  0  0  0  0  0  0  0
    0.4846    0.1255    1.1446 C   0  0  1  0  0  0  0  0  0  0  0  0
    1.8859   -0.4736    1.1916 C   0  0  0  0  0  0  0  0  0  0  0  0
    1.9234   -1.2778   -0.0907 C   0  0  1  0  0  0  0  0  0  0  0  0
    0.3127    1.4996    0.5285 C   0  0  0  0  0  0  0  0  0  0  0  0
    2.9519   -2.3927   -0.0631 C   0  0  0  0  0  0  0  0  0  0  0  0
   -1.6333   -0.9288    0.1822 C   0  0  0  0  0  0  0  0  0  0  0  0
   -0.9668    2.0938    0.5990 C   0  0  0  0  0  0  0  0  0  0  0  0
   -2.1015    1.3664    1.2828 C   0  0  0  0  0  0  0  0  0  0  0  0
   -2.5322    0.0895    0.5869 C   0  0  0  0  0  0  0  0  0  0  0  0
    1.3411    2.1947   -0.1240 C   0  0  0  0  0  0  0  0  0  0  0  0
   -2.1834   -2.0599   -0.4638 C   0  0  0  0  0  0  0  0  0  0  0  0
   -1.1870    3.3562    0.0273 C   0  0  0  0  0  0  0  0  0  0  0  0
   -3.9172   -0.0731    0.3645 C   0  0  0  0  0  0  0  0  0  0  0  0
    1.1105    3.4516   -0.6873 C   0  0  0  0  0  0  0  0  0  0  0  0
   -0.1510    4.0321   -0.6115 C   0  0  0  0  0  0  0  0  0  0  0  0
   -3.5547   -2.1988   -0.6854 C   0  0  0  0  0  0  0  0  0  0  0  0
    4.6506   -0.9127   -0.8975 C   0  0  0  0  0  0  0  0  0  0  0  0
    5.2727   -2.9287    0.2519 C   0  0  0  0  0  0  0  0  0  0  0  0
   -4.4238   -1.2048   -0.2671 C   0  0  0  0  0  0  0  0  0  0  0  0
    0.1264    0.1569    2.1813 H   0  0  0  0  0  0  0  0  0  0  0  0
    2.6994    0.2465    1.3075 H   0  0  0  0  0  0  0  0  0  0  0  0
    1.9366   -1.1567    2.0513 H   0  0  0  0  0  0  0  0  0  0  0  0
    2.0470   -0.6373   -0.9716 H   0  0  0  0  0  0  0  0  0  0  0  0
    2.8943   -2.9664   -0.9984 H   0  0  0  0  0  0  0  0  0  0  0  0
    2.6859   -3.1023    0.7320 H   0  0  0  0  0  0  0  0  0  0  0  0
   -1.8361    1.1415    2.3233 H   0  0  0  0  0  0  0  0  0  0  0  0
   -2.9563    2.0517    1.3596 H   0  0  0  0  0  0  0  0  0  0  0  0
    2.3379    1.7764   -0.2170 H   0  0  0  0  0  0  0  0  0  0  0  0
   -1.5393   -2.8690   -0.8037 H   0  0  0  0  0  0  0  0  0  0  0  0
   -2.1690    3.8199    0.0748 H   0  0  0  0  0  0  0  0  0  0  0  0
   -4.6178    0.6959    0.6835 H   0  0  0  0  0  0  0  0  0  0  0  0
   -0.3281    5.0086   -1.0522 H   0  0  0  0  0  0  0  0  0  0  0  0
    4.5382   -1.3480   -1.8973 H   0  0  0  0  0  0  0  0  0  0  0  0
    5.6980   -0.6075   -0.7831 H   0  0  0  0  0  0  0  0  0  0  0  0
    4.0789    0.0181   -0.8456 H   0  0  0  0  0  0  0  0  0  0  0  0
    5.0211   -3.6188    1.0649 H   0  0  0  0  0  0  0  0  0  0  0  0
    6.2624   -2.5198    0.4837 H   0  0  0  0  0  0  0  0  0  0  0  0
    5.3430   -3.5021   -0.6795 H   0  0  0  0  0  0  0  0  0  0  0  0
   -5.4919   -1.3065   -0.4317 H   0  0  0  0  0  0  0  0  0  0  0  0
  1 19  1  0  0  0  0
  2 21  1  0  0  0  0
  3  4  1  0  0  0  0
  3  8  1  0  0  0  0
  4  6  1  0  0  0  0
  4 11  1  0  0  0  0
  5 10  1  0  0  0  0
  5 22  1  0  0  0  0
  5 23  1  0  0  0  0
  6  7  1  0  0  0  0
  6  9  1  0  0  0  0
  6 25  1  0  0  0  0
  7  8  1  0  0  0  0
  7 26  1  0  0  0  0
  7 27  1  0  0  0  0
  8 10  1  0  0  0  0
  8 28  1  0  0  0  0
  9 12  2  0  0  0  0
  9 15  1  0  0  0  0
 10 29  1  0  0  0  0
 10 30  1  0  0  0  0
 11 14  2  0  0  0  0
 11 16  1  0  0  0  0
 12 13  1  0  0  0  0
 12 17  1  0  0  0  0
 13 14  1  0  0  0  0
 13 31  1  0  0  0  0
 13 32  1  0  0  0  0
 14 18  1  0  0  0  0
 15 19  2  0  0  0  0
 15 33  1  0  0  0  0
 16 21  2  0  0  0  0
 16 34  1  0  0  0  0
 17 20  2  0  0  0  0
 17 35  1  0  0  0  0
 18 24  2  0  0  0  0
 18 36  1  0  0  0  0
 19 20  1  0  0  0  0
 20 37  1  0  0  0  0
 21 24  1  0  0  0  0
 22 38  1  0  0  0  0
 22 39  1  0  0  0  0
 22 40  1  0  0  0  0
 23 41  1  0  0  0  0
 23 42  1  0  0  0  0
 23 43  1  0  0  0  0
 24 44  1  0  0  0  0
M  END
> <PUBCHEM_COMPOUND_CID>
10246054

> <PUBCHEM_CONFORMER_RMSD>
0.6

> <PUBCHEM_CONFORMER_DIVERSEORDER>
2
10
7
15
9
18
3
6
19
11
5
14
12
16
1
8
4
17
13

> <PUBCHEM_MMFF94_PARTIAL_CHARGES>
29
1 -0.19
10 0.27
11 0.1
12 -0.14
13 0.29
14 -0.14
15 -0.15
16 -0.15
17 -0.15
18 -0.15
19 0.19
2 -0.19
20 -0.15
21 0.19
22 0.27
23 0.27
24 -0.15
3 -0.26
33 0.15
34 0.15
35 0.15
36 0.15
37 0.15
4 -0.49
44 0.15
5 -0.81
6 0.51
8 0.28
9 -0.14

> <PUBCHEM_EFFECTIVE_ROTOR_COUNT>
2.8

> <PUBCHEM_PHARMACOPHORE_FEATURES>
5
1 5 cation
5 3 4 6 7 8 rings
6 11 14 16 18 21 24 rings
6 9 12 15 17 19 20 rings
7 4 6 9 11 12 13 14 rings

> <PUBCHEM_HEAVY_ATOM_COUNT>
24

> <PUBCHEM_ATOM_DEF_STEREO_COUNT>
0

> <PUBCHEM_ATOM_UDEF_STEREO_COUNT>
2

> <PUBCHEM_BOND_DEF_STEREO_COUNT>
0

> <PUBCHEM_BOND_UDEF_STEREO_COUNT>
0

> <PUBCHEM_ISOTOPIC_ATOM_COUNT>
0

> <PUBCHEM_COMPONENT_COUNT>
1

> <PUBCHEM_CACTVS_TAUTO_COUNT>
1

> <PUBCHEM_CONFORMER_ID>
009C57A600000002

> <PUBCHEM_MMFF94_ENERGY>
76.1974

> <PUBCHEM_FEATURE_SELFOVERLAP>
25.436

> <PUBCHEM_SHAPE_FINGERPRINT>
10319926 262 17908399383466530746
10411042 1 18410012122104876427
10871710 139 18191601765171836452
11045515 52 18261109647257786622
11315621 246 18200042733530352958
11488393 25 17829054560306394491
11833330 49 18264204721161338952
12035759 4 18268727171210722093
12403259 226 18268986484973518962
12403814 3 18121513349040743648
12553582 1 18336256860702168691
12788726 201 18117555120124025138
13004483 165 18191861223903835251
13009979 54 18059587918167561971
13140716 1 18343308076252788571
13540713 5 18129107891388341835
138480 1 14663577557649796604
14508225 48 18338786828034865445
14790565 3 17691695480304871977
14910302 57 17770512941187634286
15042514 8 18122346770212025898
16087824 20 18049441445021922949
17357779 13 18127388108440103317
17492 89 18196366147041184775
17539 30 18195233438861182438
1813 80 18336816559222506338
20028762 73 15677471031005123286
20101258 96 18263946387378943642
21029758 27 18337684026762899067
21344244 246 17977949308659233982
21524375 3 17250881924412290145
22907989 373 18046901580775125732
23114952 82 18045766039241320261
23227448 37 18050008788356830660
23366157 5 18116990194258559882
23402539 116 18340483344470313870
23557571 272 18057893433516082966
23559900 14 18198327637077430659
23566358 27 18193846074890196275
25147074 1 17986687046409534819
255183 451 18199471133069913119
2748010 2 17548429098515296137
3060560 45 17469870551779080749
352729 6 17113532615328484699
394222 165 17249747211248536969
4280585 95 18337659854681883594
4409770 3 17904474112951122381
46194498 28 17972572628349296247
531348 171 17688601463960013890
7164475 11 18264491672807505582
7471813 234 18334297548488011830
81228 2 18338230441102683161
9925002 15 18337969882580144252
9981440 41 17472696300508747624

> <PUBCHEM_SHAPE_MULTIPOLES>
463.53
7.92
5.22
1.05
6.71
4.9
0.04
-9.7
-1.01
-0.43
-2.22
-0.09
0.17
-1.56

> <PUBCHEM_SHAPE_SELFOVERLAP>
1012.217

> <PUBCHEM_SHAPE_VOLUME>
253.5

> <PUBCHEM_COORDINATE_TYPE>
2
5
10

$$$$
