11311147
  -OEChem-03232009323D

 41 42  0     1  0  0  0  0  0999 V2000
    0.0461    0.1575    1.9347 O   0  0  0  0  0  0  0  0  0  0  0  0
   -2.0284   -0.5692    0.0803 N   0  0  0  0  0  0  0  0  0  0  0  0
   -1.0756    0.5008   -0.1751 C   0  0  1  0  0  0  0  0  0  0  0  0
   -3.2532   -0.4258   -0.7063 C   0  0  0  0  0  0  0  0  0  0  0  0
   -1.4995   -1.8851   -0.2772 C   0  0  0  0  0  0  0  0  0  0  0  0
   -3.8979   -1.7990   -0.5877 C   0  0  0  0  0  0  0  0  0  0  0  0
   -2.7459   -2.7575   -0.3021 C   0  0  0  0  0  0  0  0  0  0  0  0
   -1.7183    1.8513    0.1782 C   0  0  0  0  0  0  0  0  0  0  0  0
    0.1342    0.2133    0.7090 C   0  0  0  0  0  0  0  0  0  0  0  0
   -0.7454    3.0200   -0.0111 C   0  0  0  0  0  0  0  0  0  0  0  0
    1.4640   -0.0048    0.0778 C   0  0  0  0  0  0  0  0  0  0  0  0
   -1.4039    4.3499    0.3213 C   0  0  0  0  0  0  0  0  0  0  0  0
    2.3885   -0.8289    0.6842 C   0  0  0  0  0  0  0  0  0  0  0  0
    1.7226    0.6412   -1.1138 C   0  0  0  0  0  0  0  0  0  0  0  0
    3.6278   -1.0160    0.0718 C   0  0  0  0  0  0  0  0  0  0  0  0
    2.1083   -1.5272    1.9749 C   0  0  0  0  0  0  0  0  0  0  0  0
    2.9620    0.4541   -1.7260 C   0  0  0  0  0  0  0  0  0  0  0  0
    3.9146   -0.3745   -1.1331 C   0  0  0  0  0  0  0  0  0  0  0  0
   -0.8177    0.4981   -1.2377 H   0  0  0  0  0  0  0  0  0  0  0  0
   -3.0430   -0.2063   -1.7611 H   0  0  0  0  0  0  0  0  0  0  0  0
   -3.9325    0.3363   -0.3124 H   0  0  0  0  0  0  0  0  0  0  0  0
   -0.7797   -2.2744    0.4486 H   0  0  0  0  0  0  0  0  0  0  0  0
   -1.0323   -1.8837   -1.2707 H   0  0  0  0  0  0  0  0  0  0  0  0
   -4.4336   -2.0711   -1.5028 H   0  0  0  0  0  0  0  0  0  0  0  0
   -4.6146   -1.8242    0.2416 H   0  0  0  0  0  0  0  0  0  0  0  0
   -2.9010   -3.2439    0.6682 H   0  0  0  0  0  0  0  0  0  0  0  0
   -2.6726   -3.5413   -1.0628 H   0  0  0  0  0  0  0  0  0  0  0  0
   -2.0691    1.8465    1.2189 H   0  0  0  0  0  0  0  0  0  0  0  0
   -2.5901    2.0483   -0.4561 H   0  0  0  0  0  0  0  0  0  0  0  0
   -0.4012    3.0527   -1.0505 H   0  0  0  0  0  0  0  0  0  0  0  0
    0.1359    2.8998    0.6278 H   0  0  0  0  0  0  0  0  0  0  0  0
   -1.7401    4.3715    1.3629 H   0  0  0  0  0  0  0  0  0  0  0  0
   -0.6945    5.1707    0.1763 H   0  0  0  0  0  0  0  0  0  0  0  0
   -2.2697    4.5320   -0.3234 H   0  0  0  0  0  0  0  0  0  0  0  0
    1.0298    1.3180   -1.5971 H   0  0  0  0  0  0  0  0  0  0  0  0
    4.3825   -1.6564    0.5208 H   0  0  0  0  0  0  0  0  0  0  0  0
    2.8775   -2.2792    2.1883 H   0  0  0  0  0  0  0  0  0  0  0  0
    2.1185   -0.8222    2.8121 H   0  0  0  0  0  0  0  0  0  0  0  0
    1.1604   -2.0733    1.9428 H   0  0  0  0  0  0  0  0  0  0  0  0
    3.1887    0.9590   -2.6605 H   0  0  0  0  0  0  0  0  0  0  0  0
    4.8803   -0.5184   -1.6088 H   0  0  0  0  0  0  0  0  0  0  0  0
  1  9  2  0  0  0  0
  2  3  1  0  0  0  0
  2  4  1  0  0  0  0
  2  5  1  0  0  0  0
  3  8  1  0  0  0  0
  3  9  1  0  0  0  0
  3 19  1  0  0  0  0
  4  6  1  0  0  0  0
  4 20  1  0  0  0  0
  4 21  1  0  0  0  0
  5  7  1  0  0  0  0
  5 22  1  0  0  0  0
  5 23  1  0  0  0  0
  6  7  1  0  0  0  0
  6 24  1  0  0  0  0
  6 25  1  0  0  0  0
  7 26  1  0  0  0  0
  7 27  1  0  0  0  0
  8 10  1  0  0  0  0
  8 28  1  0  0  0  0
  8 29  1  0  0  0  0
  9 11  1  0  0  0  0
 10 12  1  0  0  0  0
 10 30  1  0  0  0  0
 10 31  1  0  0  0  0
 11 13  1  0  0  0  0
 11 14  2  0  0  0  0
 12 32  1  0  0  0  0
 12 33  1  0  0  0  0
 12 34  1  0  0  0  0
 13 15  2  0  0  0  0
 13 16  1  0  0  0  0
 14 17  1  0  0  0  0
 14 35  1  0  0  0  0
 15 18  1  0  0  0  0
 15 36  1  0  0  0  0
 16 37  1  0  0  0  0
 16 38  1  0  0  0  0
 16 39  1  0  0  0  0
 17 18  2  0  0  0  0
 17 40  1  0  0  0  0
 18 41  1  0  0  0  0
M  END
> <PUBCHEM_COMPOUND_CID>
11311147

> <PUBCHEM_CONFORMER_RMSD>
0.8

> <PUBCHEM_CONFORMER_DIVERSEORDER>
1
15
13
17
16
10
18
11
9
12
26
22
20
21
19
8
24
23
2
25
3
14
4
7
5
6

> <PUBCHEM_MMFF94_PARTIAL_CHARGES>
17
1 -0.57
11 0.09
13 -0.14
14 -0.15
15 -0.15
16 0.14
17 -0.15
18 -0.15
2 -0.81
3 0.33
35 0.15
36 0.15
4 0.27
40 0.15
41 0.15
5 0.27
9 0.42

> <PUBCHEM_EFFECTIVE_ROTOR_COUNT>
6

> <PUBCHEM_PHARMACOPHORE_FEATURES>
5
1 1 acceptor
1 12 hydrophobe
1 2 cation
5 2 4 5 6 7 rings
6 11 13 14 15 17 18 rings

> <PUBCHEM_HEAVY_ATOM_COUNT>
18

> <PUBCHEM_ATOM_DEF_STEREO_COUNT>
0

> <PUBCHEM_ATOM_UDEF_STEREO_COUNT>
1

> <PUBCHEM_BOND_DEF_STEREO_COUNT>
0

> <PUBCHEM_BOND_UDEF_STEREO_COUNT>
0

> <PUBCHEM_ISOTOPIC_ATOM_COUNT>
0

> <PUBCHEM_COMPONENT_COUNT>
1

> <PUBCHEM_CACTVS_TAUTO_COUNT>
2

> <PUBCHEM_CONFORMER_ID>
00AC982B00000001

> <PUBCHEM_MMFF94_ENERGY>
42.0015

> <PUBCHEM_FEATURE_SELFOVERLAP>
25.371

> <PUBCHEM_SHAPE_FINGERPRINT>
11578080 2 17679826471536969396
11833330 49 18410569591495398585
12173636 292 18123746461299061229
12202030 40 17275114881605088062
12400797 292 18042971054497127790
12500047 106 17982164527071033760
12553582 1 18411135874691477787
12707595 3 18194115442127226791
12788726 201 18336266747652995667
13009979 54 18042948905372291010
13538477 17 18263076634958088276
13583140 156 17558519480312306426
13681431 1 17983572193859746337
14004458 79 18341622490161682341
14178342 30 18192132816593431642
14817 1 12362048744274151257
15842332 3 17969786276673542794
15852999 172 17483671204849519964
15906896 17 18118140081773963921
16752209 62 18339912711210296519
16945 1 18340762641840044090
1813 80 18129398144755745255
18186145 218 15864063299603353334
192875 21 17167852089450830916
200 152 18040998466312751166
20361792 2 18200308956639870927
20600515 1 17987248883354184911
20645477 70 17620464049760745399
20671657 53 18198628911446583439
20711985 344 18342741780197920857
20871999 31 18408882966881465791
21285901 2 17916877824495065205
21524375 3 17756154383890067697
22112679 90 18339655498382671153
23382010 3 16807005665737823051
23419403 2 15444864664686524641
23557571 272 18271796934935296520
23559900 14 18272362037099635242
23598288 3 18189058590566414425
23598291 2 17897723150617965650
23598294 1 18338802208603078217
25 1 16225763030133509014
2748010 2 18127108970110087849
298252 57 17904209126386075048
3082319 5 18113335331824687094
314173 41 18195811988553177855
5845 1 14131072398533871665
603831 33 18260269646518677990
6138700 20 17835521892608421308
6992083 37 17537704509036582640
7164475 11 18337108969170082662
7364860 26 17764867292422900029
7615 1 17968652697354683840
77492 1 17968376741083783882
81228 2 18272934895247267993
88987 49 18197208149281941368
90525 40 18046628897733437729

> <PUBCHEM_SHAPE_MULTIPOLES>
359.58
6.21
3.55
1.42
1.43
4.33
0.33
-3.81
-2.12
-3.99
0.4
1.24
-0.27
-1.19

> <PUBCHEM_SHAPE_SELFOVERLAP>
745.513

> <PUBCHEM_SHAPE_VOLUME>
208.3

> <PUBCHEM_COORDINATE_TYPE>
2
5
10

$$$$
