11580039
  -OEChem-03232009323D

 41 42  0     1  0  0  0  0  0999 V2000
    0.4461    1.3754   -1.8023 O   0  0  0  0  0  0  0  0  0  0  0  0
   -2.9838   -0.1952    0.2160 N   0  0  0  0  0  0  0  0  0  0  0  0
   -1.8996    0.6316   -0.2928 C   0  0  1  0  0  0  0  0  0  0  0  0
   -4.2509    0.5314    0.2936 C   0  0  0  0  0  0  0  0  0  0  0  0
   -3.2584   -1.3466   -0.6430 C   0  0  0  0  0  0  0  0  0  0  0  0
   -5.2739   -0.5831    0.4573 C   0  0  0  0  0  0  0  0  0  0  0  0
   -4.6203   -1.8181   -0.1550 C   0  0  0  0  0  0  0  0  0  0  0  0
   -1.6709    1.8613    0.6092 C   0  0  0  0  0  0  0  0  0  0  0  0
   -0.6367   -0.2453   -0.3760 C   0  0  0  0  0  0  0  0  0  0  0  0
   -1.2790    1.5052    2.0379 C   0  0  0  0  0  0  0  0  0  0  0  0
    0.5645    0.4846   -0.9643 C   0  0  0  0  0  0  0  0  0  0  0  0
    1.9273    0.1200   -0.4838 C   0  0  0  0  0  0  0  0  0  0  0  0
    2.1562   -1.1702   -0.0605 C   0  0  0  0  0  0  0  0  0  0  0  0
    2.9082    1.0868   -0.4812 C   0  0  0  0  0  0  0  0  0  0  0  0
    3.4318   -1.5115    0.3890 C   0  0  0  0  0  0  0  0  0  0  0  0
    4.1840    0.7457   -0.0319 C   0  0  0  0  0  0  0  0  0  0  0  0
    4.4459   -0.5535    0.4032 C   0  0  0  0  0  0  0  0  0  0  0  0
    5.8096   -0.9184    0.8845 C   0  0  0  0  0  0  0  0  0  0  0  0
   -2.1398    1.0020   -1.2994 H   0  0  0  0  0  0  0  0  0  0  0  0
   -4.4598    1.0921   -0.6266 H   0  0  0  0  0  0  0  0  0  0  0  0
   -4.3042    1.2163    1.1454 H   0  0  0  0  0  0  0  0  0  0  0  0
   -2.5340   -2.1587   -0.5292 H   0  0  0  0  0  0  0  0  0  0  0  0
   -3.3209   -1.0666   -1.7024 H   0  0  0  0  0  0  0  0  0  0  0  0
   -6.2184   -0.3367   -0.0385 H   0  0  0  0  0  0  0  0  0  0  0  0
   -5.4877   -0.7644    1.5172 H   0  0  0  0  0  0  0  0  0  0  0  0
   -4.5138   -2.5973    0.6091 H   0  0  0  0  0  0  0  0  0  0  0  0
   -5.2195   -2.2300   -0.9732 H   0  0  0  0  0  0  0  0  0  0  0  0
   -0.8812    2.4926    0.1850 H   0  0  0  0  0  0  0  0  0  0  0  0
   -2.5600    2.5021    0.6277 H   0  0  0  0  0  0  0  0  0  0  0  0
   -0.7836   -1.0930   -1.0552 H   0  0  0  0  0  0  0  0  0  0  0  0
   -0.3927   -0.6512    0.6113 H   0  0  0  0  0  0  0  0  0  0  0  0
   -0.2982    1.0237    2.0848 H   0  0  0  0  0  0  0  0  0  0  0  0
   -2.0139    0.8521    2.5172 H   0  0  0  0  0  0  0  0  0  0  0  0
   -1.2137    2.4198    2.6373 H   0  0  0  0  0  0  0  0  0  0  0  0
    1.3919   -1.9402   -0.0808 H   0  0  0  0  0  0  0  0  0  0  0  0
    2.7172    2.1035   -0.8111 H   0  0  0  0  0  0  0  0  0  0  0  0
    3.6245   -2.5277    0.7229 H   0  0  0  0  0  0  0  0  0  0  0  0
    4.9647    1.5016   -0.0225 H   0  0  0  0  0  0  0  0  0  0  0  0
    6.5789   -0.3234    0.3806 H   0  0  0  0  0  0  0  0  0  0  0  0
    5.8852   -0.7484    1.9630 H   0  0  0  0  0  0  0  0  0  0  0  0
    6.0329   -1.9707    0.6783 H   0  0  0  0  0  0  0  0  0  0  0  0
  1 11  2  0  0  0  0
  2  3  1  0  0  0  0
  2  4  1  0  0  0  0
  2  5  1  0  0  0  0
  3  8  1  0  0  0  0
  3  9  1  0  0  0  0
  3 19  1  0  0  0  0
  4  6  1  0  0  0  0
  4 20  1  0  0  0  0
  4 21  1  0  0  0  0
  5  7  1  0  0  0  0
  5 22  1  0  0  0  0
  5 23  1  0  0  0  0
  6  7  1  0  0  0  0
  6 24  1  0  0  0  0
  6 25  1  0  0  0  0
  7 26  1  0  0  0  0
  7 27  1  0  0  0  0
  8 10  1  0  0  0  0
  8 28  1  0  0  0  0
  8 29  1  0  0  0  0
  9 11  1  0  0  0  0
  9 30  1  0  0  0  0
  9 31  1  0  0  0  0
 10 32  1  0  0  0  0
 10 33  1  0  0  0  0
 10 34  1  0  0  0  0
 11 12  1  0  0  0  0
 12 13  2  0  0  0  0
 12 14  1  0  0  0  0
 13 15  1  0  0  0  0
 13 35  1  0  0  0  0
 14 16  2  0  0  0  0
 14 36  1  0  0  0  0
 15 17  2  0  0  0  0
 15 37  1  0  0  0  0
 16 17  1  0  0  0  0
 16 38  1  0  0  0  0
 17 18  1  0  0  0  0
 18 39  1  0  0  0  0
 18 40  1  0  0  0  0
 18 41  1  0  0  0  0
M  END
> <PUBCHEM_COMPOUND_CID>
11580039

> <PUBCHEM_CONFORMER_RMSD>
0.8

> <PUBCHEM_CONFORMER_DIVERSEORDER>
1
10
12
20
19
22
32
30
26
5
9
11
25
21
29
3
31
33
24
17
16
14
23
6
28
2
18
13
7
27
15
4
8

> <PUBCHEM_MMFF94_PARTIAL_CHARGES>
18
1 -0.57
11 0.42
12 0.09
13 -0.15
14 -0.15
15 -0.15
16 -0.15
17 -0.14
18 0.14
2 -0.81
3 0.27
35 0.15
36 0.15
37 0.15
38 0.15
4 0.27
5 0.27
9 0.06

> <PUBCHEM_EFFECTIVE_ROTOR_COUNT>
6

> <PUBCHEM_PHARMACOPHORE_FEATURES>
5
1 1 acceptor
1 10 hydrophobe
1 2 cation
5 2 4 5 6 7 rings
6 12 13 14 15 16 17 rings

> <PUBCHEM_HEAVY_ATOM_COUNT>
18

> <PUBCHEM_ATOM_DEF_STEREO_COUNT>
0

> <PUBCHEM_ATOM_UDEF_STEREO_COUNT>
1

> <PUBCHEM_BOND_DEF_STEREO_COUNT>
0

> <PUBCHEM_BOND_UDEF_STEREO_COUNT>
0

> <PUBCHEM_ISOTOPIC_ATOM_COUNT>
0

> <PUBCHEM_COMPONENT_COUNT>
1

> <PUBCHEM_CACTVS_TAUTO_COUNT>
2

> <PUBCHEM_CONFORMER_ID>
00B0B28700000001

> <PUBCHEM_MMFF94_ENERGY>
36.9302

> <PUBCHEM_FEATURE_SELFOVERLAP>
25.371

> <PUBCHEM_SHAPE_FINGERPRINT>
10465860 250 18131915979344388297
11045515 52 18113615690374009045
11132069 177 15841551890167703749
12107183 9 17691127037208572474
12236239 1 18408324397467547415
12251169 10 18412542098592036438
12363563 72 17022910029601583700
12507560 40 17202768086160340772
12596602 18 18343295960329134938
12633257 1 16988841717655079547
12892183 10 17845930720063583930
13167823 11 18408322194049292647
13533116 47 18408603665179331794
13583140 156 17702647870553003944
14341114 176 18131072602317834562
14341114 328 18060424637662477504
14386348 63 16226054383466052256
14787075 74 18200027477077938490
14849402 71 18270956981921149648
15099037 51 12107784112039486121
15183329 4 10665216026451041976
15375358 24 15864073199877309028
15375462 189 18271525402844506863
17349148 13 18040720272574821754
17834072 33 18335142003356184164
17862501 102 18409729556100477250
17870717 6 14345798219002887115
1813 80 17676778574033594638
18186145 218 14996283660766791621
18222031 100 18040437681423481614
187816 3 14779264207180543293
19050596 39 18342739623934349742
19784866 240 17894635841872547559
200 152 18333449850291464601
20028762 73 18411695517473362094
20279233 1 15791738498870725872
20600515 1 17703803547721486161
20645477 56 15338828764574330352
20645477 70 16877948256485489070
20871999 31 14129051487345225550
21065198 48 18412548678329037440
21069387 34 17676214588702799909
21267235 1 18334582330368162822
22646028 1 18334575750114028222
22713019 99 16081087104043804113
2297311 6 17703804616914895116
23402539 116 18409161112963096671
23557571 272 17059516061556574081
23559900 14 18412257359118589824
26918003 58 18411416211369654859
3286 77 18409725171387592176
351380 3 18113615690020262474
4047638 21 13542464276627339500
42 15 18407760334917168982
4214541 1 18335419037194461325
465052 167 18040718065489535482
5104073 3 18411704321891503545
5374978 207 18131353015978570424
633830 44 15647331983453177149
67856867 119 18336828709690696428
69474 34 16773792628056351993
7495541 125 17917145108303756440
76465 3 17531796962358110026

> <PUBCHEM_SHAPE_MULTIPOLES>
359.58
11.66
1.76
1.19
1.75
0.05
0.09
-4.93
2.85
-0.78
0.26
0.09
0.51
-1.03

> <PUBCHEM_SHAPE_SELFOVERLAP>
742.524

> <PUBCHEM_SHAPE_VOLUME>
208.7

> <PUBCHEM_COORDINATE_TYPE>
2
5
10

$$$$
