11209208
  -OEChem-03232009323D

 45 47  0     1  0  0  0  0  0999 V2000
    5.1167    1.0431    0.2813 S   0  0  0  0  0  0  0  0  0  0  0  0
   -1.8647    0.5203    2.0872 O   0  0  0  0  0  0  0  0  0  0  0  0
   -3.3925   -0.7698    0.0202 N   0  0  0  0  0  0  0  0  0  0  0  0
   -2.5007    0.3517   -0.2353 C   0  0  1  0  0  0  0  0  0  0  0  0
   -2.6863   -2.0503    0.0450 C   0  0  0  0  0  0  0  0  0  0  0  0
   -4.4132   -0.9191   -1.0166 C   0  0  0  0  0  0  0  0  0  0  0  0
   -3.8156   -3.0638   -0.0678 C   0  0  0  0  0  0  0  0  0  0  0  0
   -4.9491   -2.3214   -0.7687 C   0  0  0  0  0  0  0  0  0  0  0  0
   -3.3192    1.6511   -0.2946 C   0  0  0  0  0  0  0  0  0  0  0  0
   -1.5045    0.3751    0.9199 C   0  0  0  0  0  0  0  0  0  0  0  0
   -2.4315    2.8828   -0.5020 C   0  0  0  0  0  0  0  0  0  0  0  0
   -0.0523    0.2208    0.6345 C   0  0  0  0  0  0  0  0  0  0  0  0
   -3.2588    4.1564   -0.5806 C   0  0  0  0  0  0  0  0  0  0  0  0
    0.7520   -0.3675    1.5868 C   0  0  0  0  0  0  0  0  0  0  0  0
    0.4389    0.6712   -0.5718 C   0  0  0  0  0  0  0  0  0  0  0  0
    2.1134   -0.5124    1.3197 C   0  0  0  0  0  0  0  0  0  0  0  0
    1.8002    0.5261   -0.8390 C   0  0  0  0  0  0  0  0  0  0  0  0
    2.6375   -0.0657    0.1068 C   0  0  0  0  0  0  0  0  0  0  0  0
    4.0453   -0.2154   -0.1688 C   0  0  0  0  0  0  0  0  0  0  0  0
    4.7067   -1.2653   -0.7693 C   0  0  0  0  0  0  0  0  0  0  0  0
    6.1096   -1.0330   -0.8603 C   0  0  0  0  0  0  0  0  0  0  0  0
    6.4682    0.1851   -0.3265 C   0  0  0  0  0  0  0  0  0  0  0  0
   -2.0040    0.2013   -1.1982 H   0  0  0  0  0  0  0  0  0  0  0  0
   -2.0071   -2.1609   -0.8104 H   0  0  0  0  0  0  0  0  0  0  0  0
   -2.1190   -2.2133    0.9668 H   0  0  0  0  0  0  0  0  0  0  0  0
   -3.9874   -0.8594   -2.0266 H   0  0  0  0  0  0  0  0  0  0  0  0
   -5.2266   -0.1922   -0.9296 H   0  0  0  0  0  0  0  0  0  0  0  0
   -3.5046   -3.9512   -0.6283 H   0  0  0  0  0  0  0  0  0  0  0  0
   -4.1459   -3.3916    0.9249 H   0  0  0  0  0  0  0  0  0  0  0  0
   -5.8313   -2.2936   -0.1182 H   0  0  0  0  0  0  0  0  0  0  0  0
   -5.2370   -2.8120   -1.7041 H   0  0  0  0  0  0  0  0  0  0  0  0
   -4.0368    1.6247   -1.1227 H   0  0  0  0  0  0  0  0  0  0  0  0
   -3.8965    1.7813    0.6305 H   0  0  0  0  0  0  0  0  0  0  0  0
   -1.7127    2.9860    0.3178 H   0  0  0  0  0  0  0  0  0  0  0  0
   -1.8620    2.7783   -1.4319 H   0  0  0  0  0  0  0  0  0  0  0  0
   -3.9666    4.1147   -1.4146 H   0  0  0  0  0  0  0  0  0  0  0  0
   -2.6072    5.0228   -0.7318 H   0  0  0  0  0  0  0  0  0  0  0  0
   -3.8246    4.3141    0.3432 H   0  0  0  0  0  0  0  0  0  0  0  0
    0.3568   -0.7257    2.5326 H   0  0  0  0  0  0  0  0  0  0  0  0
   -0.1686    1.1614   -1.3222 H   0  0  0  0  0  0  0  0  0  0  0  0
    2.7516   -0.9779    2.0672 H   0  0  0  0  0  0  0  0  0  0  0  0
    2.1939    0.8847   -1.7873 H   0  0  0  0  0  0  0  0  0  0  0  0
    4.2139   -2.1603   -1.1283 H   0  0  0  0  0  0  0  0  0  0  0  0
    6.8195   -1.7243   -1.2953 H   0  0  0  0  0  0  0  0  0  0  0  0
    7.4591    0.6123   -0.2643 H   0  0  0  0  0  0  0  0  0  0  0  0
  1 19  1  0  0  0  0
  1 22  1  0  0  0  0
  2 10  2  0  0  0  0
  3  4  1  0  0  0  0
  3  5  1  0  0  0  0
  3  6  1  0  0  0  0
  4  9  1  0  0  0  0
  4 10  1  0  0  0  0
  4 23  1  0  0  0  0
  5  7  1  0  0  0  0
  5 24  1  0  0  0  0
  5 25  1  0  0  0  0
  6  8  1  0  0  0  0
  6 26  1  0  0  0  0
  6 27  1  0  0  0  0
  7  8  1  0  0  0  0
  7 28  1  0  0  0  0
  7 29  1  0  0  0  0
  8 30  1  0  0  0  0
  8 31  1  0  0  0  0
  9 11  1  0  0  0  0
  9 32  1  0  0  0  0
  9 33  1  0  0  0  0
 10 12  1  0  0  0  0
 11 13  1  0  0  0  0
 11 34  1  0  0  0  0
 11 35  1  0  0  0  0
 12 14  2  0  0  0  0
 12 15  1  0  0  0  0
 13 36  1  0  0  0  0
 13 37  1  0  0  0  0
 13 38  1  0  0  0  0
 14 16  1  0  0  0  0
 14 39  1  0  0  0  0
 15 17  2  0  0  0  0
 15 40  1  0  0  0  0
 16 18  2  0  0  0  0
 16 41  1  0  0  0  0
 17 18  1  0  0  0  0
 17 42  1  0  0  0  0
 18 19  1  0  0  0  0
 19 20  2  0  0  0  0
 20 21  1  0  0  0  0
 20 43  1  0  0  0  0
 21 22  2  0  0  0  0
 21 44  1  0  0  0  0
 22 45  1  0  0  0  0
M  END
> <PUBCHEM_COMPOUND_CID>
11209208

> <PUBCHEM_CONFORMER_RMSD>
0.8

> <PUBCHEM_CONFORMER_DIVERSEORDER>
1
21
23
28
47
25
56
27
59
48
45
35
24
29
39
42
26
44
57
18
40
60
50
13
14
41
54
49
20
52
46
3
19
36
32
58
4
51
7
15
33
6
10
30
53
43
8
38
5
16
34
17
31
11
37
12
55
22
9
2

> <PUBCHEM_MMFF94_PARTIAL_CHARGES>
24
1 -0.08
10 0.42
12 0.09
14 -0.15
15 -0.15
16 -0.15
17 -0.15
18 0.05
19 -0.01
2 -0.57
20 -0.15
21 -0.15
22 -0.11
3 -0.81
39 0.15
4 0.33
40 0.15
41 0.15
42 0.15
43 0.15
44 0.15
45 0.15
5 0.27
6 0.27

> <PUBCHEM_EFFECTIVE_ROTOR_COUNT>
7

> <PUBCHEM_PHARMACOPHORE_FEATURES>
6
1 13 hydrophobe
1 2 acceptor
1 3 cation
5 1 19 20 21 22 rings
5 3 5 6 7 8 rings
6 12 14 15 16 17 18 rings

> <PUBCHEM_HEAVY_ATOM_COUNT>
22

> <PUBCHEM_ATOM_DEF_STEREO_COUNT>
0

> <PUBCHEM_ATOM_UDEF_STEREO_COUNT>
1

> <PUBCHEM_BOND_DEF_STEREO_COUNT>
0

> <PUBCHEM_BOND_UDEF_STEREO_COUNT>
0

> <PUBCHEM_ISOTOPIC_ATOM_COUNT>
0

> <PUBCHEM_COMPONENT_COUNT>
1

> <PUBCHEM_CACTVS_TAUTO_COUNT>
2

> <PUBCHEM_CONFORMER_ID>
00AB09F800000001

> <PUBCHEM_MMFF94_ENERGY>
47.0997

> <PUBCHEM_FEATURE_SELFOVERLAP>
30.447

> <PUBCHEM_SHAPE_FINGERPRINT>
10319688 140 16969143125463178719
10595046 47 18334858329598759102
10680689 15 18335428945552034024
11056379 131 18410291398078949789
11101153 10 18190468340652045244
11796584 16 18127129680849207870
12107183 9 17757541959385239410
12553582 1 18263070158923048187
12633257 1 15195009421877010887
12788726 201 18261100869062116955
12916754 54 18271811258434892296
13103583 49 15840722923062831279
13288520 33 18272654571052812495
13540713 5 17751341903083236579
13583140 156 17988637485162677172
14508225 48 18339069506378242973
15238133 3 10159428668492608306
15250474 111 18189041028461634626
15842332 3 17678437689571361881
16087824 20 18336262346562439109
16992828 155 17314788486319005485
17349148 13 17095519621626937456
17844677 252 18411142437686381828
19489759 90 18259702298645294144
200 152 17967810591427368707
20101258 96 18335990860830144649
20871999 31 18411133628043455659
21065201 7 18341322327961205722
21315763 129 18409444804818580848
21426921 1 18410011022703816997
21623969 137 16917356943922507878
22393880 68 18411415073409134274
23081809 10 17749395837255257622
23379529 103 18123194759971022071
23402539 116 18260548934971783284
23557571 272 18272089374673493196
23559900 14 18270672177289073705
255183 451 17979909738451423079
2838139 119 12829474991627922702
3004659 81 18042395988763049071
329604 57 17988647440917922674
4214541 1 18413109442128300260
465052 167 16701746050831200942
497634 4 18131359621575293137
5104073 3 16917075417527677922
5283173 99 18411135810419851752
531348 171 18264210210319830498
59755656 520 17986400984075507913
633830 44 17168725037348400838
7495541 125 17489306438587014466

> <PUBCHEM_SHAPE_MULTIPOLES>
445.75
13.4
3.12
1.24
16.3
2.22
0.49
-4.27
-4.33
-6.81
-0.89
-0.02
-0.05
0.29

> <PUBCHEM_SHAPE_SELFOVERLAP>
934.389

> <PUBCHEM_SHAPE_VOLUME>
254.3

> <PUBCHEM_COORDINATE_TYPE>
2
5
10

$$$$
