11530118
  -OEChem-03232009323D

 41 42  0     1  0  0  0  0  0999 V2000
    4.8229    0.2682   -1.5874 F   0  0  0  0  0  0  0  0  0  0  0  0
    5.3271    0.3151    0.5214 F   0  0  0  0  0  0  0  0  0  0  0  0
    4.8708   -1.5799   -0.4426 F   0  0  0  0  0  0  0  0  0  0  0  0
   -1.3851    0.4161    2.1195 O   0  0  0  0  0  0  0  0  0  0  0  0
   -2.9981   -0.7425    0.0394 N   0  0  0  0  0  0  0  0  0  0  0  0
   -2.0994    0.3798   -0.1861 C   0  0  1  0  0  0  0  0  0  0  0  0
   -4.0543   -0.8235   -0.9691 C   0  0  0  0  0  0  0  0  0  0  0  0
   -2.3098   -2.0312   -0.0274 C   0  0  0  0  0  0  0  0  0  0  0  0
   -4.6017   -2.2303   -0.7780 C   0  0  0  0  0  0  0  0  0  0  0  0
   -3.4564   -3.0231   -0.1559 C   0  0  0  0  0  0  0  0  0  0  0  0
   -2.9008    1.6906   -0.1489 C   0  0  0  0  0  0  0  0  0  0  0  0
   -1.0656    0.3291    0.9348 C   0  0  0  0  0  0  0  0  0  0  0  0
   -2.0030    2.9205   -0.3203 C   0  0  0  0  0  0  0  0  0  0  0  0
    0.3742    0.1722    0.5930 C   0  0  0  0  0  0  0  0  0  0  0  0
   -2.8142    4.2067   -0.3034 C   0  0  0  0  0  0  0  0  0  0  0  0
    0.8321    0.6804   -0.6035 C   0  0  0  0  0  0  0  0  0  0  0  0
    1.2012   -0.4747    1.4861 C   0  0  0  0  0  0  0  0  0  0  0  0
    2.1821    0.5347   -0.9225 C   0  0  0  0  0  0  0  0  0  0  0  0
    2.5512   -0.6203    1.1671 C   0  0  0  0  0  0  0  0  0  0  0  0
    3.0417   -0.1157   -0.0371 C   0  0  0  0  0  0  0  0  0  0  0  0
    4.4849   -0.2722   -0.3794 C   0  0  0  0  0  0  0  0  0  0  0  0
   -1.6367    0.2750   -1.1716 H   0  0  0  0  0  0  0  0  0  0  0  0
   -3.6611   -0.7152   -1.9881 H   0  0  0  0  0  0  0  0  0  0  0  0
   -4.8540   -0.0922   -0.8164 H   0  0  0  0  0  0  0  0  0  0  0  0
   -1.7149   -2.2503    0.8649 H   0  0  0  0  0  0  0  0  0  0  0  0
   -1.6607   -2.1044   -0.9097 H   0  0  0  0  0  0  0  0  0  0  0  0
   -5.4616   -2.2263   -0.0977 H   0  0  0  0  0  0  0  0  0  0  0  0
   -4.9270   -2.6666   -1.7279 H   0  0  0  0  0  0  0  0  0  0  0  0
   -3.1766   -3.8831   -0.7727 H   0  0  0  0  0  0  0  0  0  0  0  0
   -3.7586   -3.3994    0.8286 H   0  0  0  0  0  0  0  0  0  0  0  0
   -3.6455    1.7175   -0.9527 H   0  0  0  0  0  0  0  0  0  0  0  0
   -3.4455    1.7783    0.8007 H   0  0  0  0  0  0  0  0  0  0  0  0
   -1.2563    2.9708    0.4792 H   0  0  0  0  0  0  0  0  0  0  0  0
   -1.4658    2.8587   -1.2730 H   0  0  0  0  0  0  0  0  0  0  0  0
   -3.5495    4.2184   -1.1143 H   0  0  0  0  0  0  0  0  0  0  0  0
   -2.1558    5.0717   -0.4303 H   0  0  0  0  0  0  0  0  0  0  0  0
   -3.3471    4.3218    0.6459 H   0  0  0  0  0  0  0  0  0  0  0  0
    0.2070    1.2167   -1.3064 H   0  0  0  0  0  0  0  0  0  0  0  0
    0.8325   -0.8777    2.4245 H   0  0  0  0  0  0  0  0  0  0  0  0
    2.5471    0.9396   -1.8624 H   0  0  0  0  0  0  0  0  0  0  0  0
    3.2131   -1.1298    1.8625 H   0  0  0  0  0  0  0  0  0  0  0  0
  1 21  1  0  0  0  0
  2 21  1  0  0  0  0
  3 21  1  0  0  0  0
  4 12  2  0  0  0  0
  5  6  1  0  0  0  0
  5  7  1  0  0  0  0
  5  8  1  0  0  0  0
  6 11  1  0  0  0  0
  6 12  1  0  0  0  0
  6 22  1  0  0  0  0
  7  9  1  0  0  0  0
  7 23  1  0  0  0  0
  7 24  1  0  0  0  0
  8 10  1  0  0  0  0
  8 25  1  0  0  0  0
  8 26  1  0  0  0  0
  9 10  1  0  0  0  0
  9 27  1  0  0  0  0
  9 28  1  0  0  0  0
 10 29  1  0  0  0  0
 10 30  1  0  0  0  0
 11 13  1  0  0  0  0
 11 31  1  0  0  0  0
 11 32  1  0  0  0  0
 12 14  1  0  0  0  0
 13 15  1  0  0  0  0
 13 33  1  0  0  0  0
 13 34  1  0  0  0  0
 14 16  2  0  0  0  0
 14 17  1  0  0  0  0
 15 35  1  0  0  0  0
 15 36  1  0  0  0  0
 15 37  1  0  0  0  0
 16 18  1  0  0  0  0
 16 38  1  0  0  0  0
 17 19  2  0  0  0  0
 17 39  1  0  0  0  0
 18 20  2  0  0  0  0
 18 40  1  0  0  0  0
 19 20  1  0  0  0  0
 19 41  1  0  0  0  0
 20 21  1  0  0  0  0
M  END
> <PUBCHEM_COMPOUND_CID>
11530118

> <PUBCHEM_CONFORMER_RMSD>
0.8

> <PUBCHEM_CONFORMER_DIVERSEORDER>
1
9
12
11
19
13
10
7
18
14
17
5
15
3
6
2
16
4
8

> <PUBCHEM_MMFF94_PARTIAL_CHARGES>
20
1 -0.34
12 0.42
14 0.09
16 -0.15
17 -0.15
18 -0.15
19 -0.15
2 -0.34
20 -0.14
21 1.16
3 -0.34
38 0.15
39 0.15
4 -0.57
40 0.15
41 0.15
5 -0.81
6 0.33
7 0.27
8 0.27

> <PUBCHEM_EFFECTIVE_ROTOR_COUNT>
7

> <PUBCHEM_PHARMACOPHORE_FEATURES>
5
1 15 hydrophobe
1 4 acceptor
1 5 cation
5 5 7 8 9 10 rings
6 14 16 17 18 19 20 rings

> <PUBCHEM_HEAVY_ATOM_COUNT>
21

> <PUBCHEM_ATOM_DEF_STEREO_COUNT>
0

> <PUBCHEM_ATOM_UDEF_STEREO_COUNT>
1

> <PUBCHEM_BOND_DEF_STEREO_COUNT>
0

> <PUBCHEM_BOND_UDEF_STEREO_COUNT>
0

> <PUBCHEM_ISOTOPIC_ATOM_COUNT>
0

> <PUBCHEM_COMPONENT_COUNT>
1

> <PUBCHEM_CACTVS_TAUTO_COUNT>
2

> <PUBCHEM_CONFORMER_ID>
00AFEF8600000001

> <PUBCHEM_MMFF94_ENERGY>
38.3206

> <PUBCHEM_FEATURE_SELFOVERLAP>
25.371

> <PUBCHEM_SHAPE_FINGERPRINT>
10680689 15 18337401460906693088
11045515 52 18114177609788129637
11543360 7 18410862083590204944
11833330 49 18336536209880972977
12173636 292 18193824964930575845
12403260 363 18187641440664635128
12500047 106 18268987579451752768
12553582 1 18336255851743387683
12633257 1 15482117214084597895
12714826 92 18131626798937833731
12788726 201 18261945285317931283
13583140 156 17917417706200250728
14251751 93 18410008806289715430
14251757 5 18334849516325939405
14508225 48 18340474682228017141
15842332 3 17751062635682649851
15961568 22 18119799459981027992
16752209 62 18339911667480859883
17349148 13 17023171743750354640
17539 30 18341321250341464077
1813 80 18127428941110989247
19862831 5 17531521078943638631
200 152 18040432239162054939
20300324 65 18333449850154593949
20600515 1 18057339481503095359
20671657 53 18196657521795238559
20693207 138 17989198265688083240
20871999 31 18412824681190222379
21065201 7 18342731884809548994
21426921 1 18410854339384693477
22094290 60 18411698789841633299
22907989 373 18264189375612572917
231179 274 13912318006262759090
23402539 116 18335698356060412845
23402655 69 17313088744716167239
23557571 272 18272921735082741128
23559900 14 18270388503210018665
23598288 3 18115582631087380065
23598291 2 17824247224891949771
25147074 1 17750500793962666128
3057174 1 17619892977965658213
4921388 177 18201726115442996001
5104073 3 16128104343452519498
531348 171 18264778653768551398
57100710 210 18342737437764439103
59755656 520 17772198509708617137
603831 33 18113609088713349683
6049 1 17917698123982316352
621550 5 17916866945205962025
633830 44 17241628147301496406
7471813 234 18261953071598130636
7495541 125 17560517412987647194
7615 1 17678156244485543600

> <PUBCHEM_SHAPE_MULTIPOLES>
399.5
9.85
3.27
1.26
10
2.85
0.37
-4.18
-3.22
-6.21
-0.58
0.5
-0.05
-0.49

> <PUBCHEM_SHAPE_SELFOVERLAP>
835.313

> <PUBCHEM_SHAPE_VOLUME>
229.3

> <PUBCHEM_COORDINATE_TYPE>
2
5
10

$$$$
