11243002
  -OEChem-03232009323D

 44 46  0     1  0  0  0  0  0999 V2000
   -1.4654    0.1784   -2.2209 O   0  0  0  0  0  0  0  0  0  0  0  0
   -2.9321   -0.5992    0.1199 N   0  0  0  0  0  0  0  0  0  0  0  0
   -1.9148    0.4413    0.1363 C   0  0  2  0  0  0  0  0  0  0  0  0
   -2.3609   -1.9407    0.2358 C   0  0  0  0  0  0  0  0  0  0  0  0
   -3.8650   -0.4857    1.2406 C   0  0  0  0  0  0  0  0  0  0  0  0
   -3.5687   -2.7968    0.5875 C   0  0  0  0  0  0  0  0  0  0  0  0
   -4.5586   -1.8398    1.2445 C   0  0  0  0  0  0  0  0  0  0  0  0
   -2.5872    1.8204    0.0463 C   0  0  0  0  0  0  0  0  0  0  0  0
   -0.9909    0.1664   -1.0680 C   0  0  0  0  0  0  0  0  0  0  0  0
   -1.5632    2.9591   -0.0050 C   0  0  0  0  0  0  0  0  0  0  0  0
    0.4229   -0.1075   -0.8653 C   0  0  0  0  0  0  0  0  0  0  0  0
   -2.2447    4.3140   -0.1164 C   0  0  0  0  0  0  0  0  0  0  0  0
    1.0925    0.4509    0.2240 C   0  0  0  0  0  0  0  0  0  0  0  0
    1.1067   -0.9278   -1.7577 C   0  0  0  0  0  0  0  0  0  0  0  0
    2.4575    0.1953    0.4338 C   0  0  0  0  0  0  0  0  0  0  0  0
    3.1528   -0.6387   -0.4738 C   0  0  0  0  0  0  0  0  0  0  0  0
    2.4628   -1.1926   -1.5644 C   0  0  0  0  0  0  0  0  0  0  0  0
    3.1475    0.7489    1.5246 C   0  0  0  0  0  0  0  0  0  0  0  0
    4.5177   -0.8944   -0.2641 C   0  0  0  0  0  0  0  0  0  0  0  0
    4.5037    0.4843    1.7174 C   0  0  0  0  0  0  0  0  0  0  0  0
    5.1876   -0.3357    0.8248 C   0  0  0  0  0  0  0  0  0  0  0  0
   -1.3588    0.3829    1.0773 H   0  0  0  0  0  0  0  0  0  0  0  0
   -1.6199   -2.0028    1.0435 H   0  0  0  0  0  0  0  0  0  0  0  0
   -1.9003   -2.2965   -0.6912 H   0  0  0  0  0  0  0  0  0  0  0  0
   -4.6053    0.3091    1.1071 H   0  0  0  0  0  0  0  0  0  0  0  0
   -3.3462   -0.3332    2.1957 H   0  0  0  0  0  0  0  0  0  0  0  0
   -3.2964   -3.6199    1.2559 H   0  0  0  0  0  0  0  0  0  0  0  0
   -4.0160   -3.2302   -0.3149 H   0  0  0  0  0  0  0  0  0  0  0  0
   -5.4848   -1.8061    0.6588 H   0  0  0  0  0  0  0  0  0  0  0  0
   -4.8152   -2.1568    2.2604 H   0  0  0  0  0  0  0  0  0  0  0  0
   -3.2332    2.0002    0.9133 H   0  0  0  0  0  0  0  0  0  0  0  0
   -3.2222    1.8737   -0.8480 H   0  0  0  0  0  0  0  0  0  0  0  0
   -0.8921    2.8395   -0.8621 H   0  0  0  0  0  0  0  0  0  0  0  0
   -0.9477    2.9462    0.9014 H   0  0  0  0  0  0  0  0  0  0  0  0
   -2.9004    4.4956    0.7412 H   0  0  0  0  0  0  0  0  0  0  0  0
   -1.4972    5.1128   -0.1470 H   0  0  0  0  0  0  0  0  0  0  0  0
   -2.8463    4.3766   -1.0288 H   0  0  0  0  0  0  0  0  0  0  0  0
    0.5859    1.1156    0.9173 H   0  0  0  0  0  0  0  0  0  0  0  0
    0.6009   -1.3766   -2.6088 H   0  0  0  0  0  0  0  0  0  0  0  0
    2.9772   -1.8377   -2.2738 H   0  0  0  0  0  0  0  0  0  0  0  0
    2.6336    1.3928    2.2354 H   0  0  0  0  0  0  0  0  0  0  0  0
    5.0722   -1.5326   -0.9491 H   0  0  0  0  0  0  0  0  0  0  0  0
    5.0257    0.9188    2.5651 H   0  0  0  0  0  0  0  0  0  0  0  0
    6.2433   -0.5413    0.9755 H   0  0  0  0  0  0  0  0  0  0  0  0
  1  9  2  0  0  0  0
  2  3  1  0  0  0  0
  2  4  1  0  0  0  0
  2  5  1  0  0  0  0
  3  8  1  0  0  0  0
  3  9  1  0  0  0  0
  3 22  1  0  0  0  0
  4  6  1  0  0  0  0
  4 23  1  0  0  0  0
  4 24  1  0  0  0  0
  5  7  1  0  0  0  0
  5 25  1  0  0  0  0
  5 26  1  0  0  0  0
  6  7  1  0  0  0  0
  6 27  1  0  0  0  0
  6 28  1  0  0  0  0
  7 29  1  0  0  0  0
  7 30  1  0  0  0  0
  8 10  1  0  0  0  0
  8 31  1  0  0  0  0
  8 32  1  0  0  0  0
  9 11  1  0  0  0  0
 10 12  1  0  0  0  0
 10 33  1  0  0  0  0
 10 34  1  0  0  0  0
 11 13  2  0  0  0  0
 11 14  1  0  0  0  0
 12 35  1  0  0  0  0
 12 36  1  0  0  0  0
 12 37  1  0  0  0  0
 13 15  1  0  0  0  0
 13 38  1  0  0  0  0
 14 17  2  0  0  0  0
 14 39  1  0  0  0  0
 15 16  1  0  0  0  0
 15 18  2  0  0  0  0
 16 17  1  0  0  0  0
 16 19  2  0  0  0  0
 17 40  1  0  0  0  0
 18 20  1  0  0  0  0
 18 41  1  0  0  0  0
 19 21  1  0  0  0  0
 19 42  1  0  0  0  0
 20 21  2  0  0  0  0
 20 43  1  0  0  0  0
 21 44  1  0  0  0  0
M  END
> <PUBCHEM_COMPOUND_CID>
11243002

> <PUBCHEM_CONFORMER_RMSD>
0.8

> <PUBCHEM_CONFORMER_DIVERSEORDER>
1
27
4
12
38
17
24
14
40
22
8
34
29
10
28
32
16
5
26
36
20
11
21
39
30
25
37
9
23
7
13
33
31
3
35
6
15
19
18
2

> <PUBCHEM_MMFF94_PARTIAL_CHARGES>
21
1 -0.57
11 0.09
13 -0.15
14 -0.15
17 -0.15
18 -0.15
19 -0.15
2 -0.81
20 -0.15
21 -0.15
3 0.33
38 0.15
39 0.15
4 0.27
40 0.15
41 0.15
42 0.15
43 0.15
44 0.15
5 0.27
9 0.42

> <PUBCHEM_EFFECTIVE_ROTOR_COUNT>
6

> <PUBCHEM_PHARMACOPHORE_FEATURES>
6
1 1 acceptor
1 12 hydrophobe
1 2 cation
5 2 4 5 6 7 rings
6 11 13 14 15 16 17 rings
6 15 16 18 19 20 21 rings

> <PUBCHEM_HEAVY_ATOM_COUNT>
21

> <PUBCHEM_ATOM_DEF_STEREO_COUNT>
0

> <PUBCHEM_ATOM_UDEF_STEREO_COUNT>
1

> <PUBCHEM_BOND_DEF_STEREO_COUNT>
0

> <PUBCHEM_BOND_UDEF_STEREO_COUNT>
0

> <PUBCHEM_ISOTOPIC_ATOM_COUNT>
0

> <PUBCHEM_COMPONENT_COUNT>
1

> <PUBCHEM_CACTVS_TAUTO_COUNT>
2

> <PUBCHEM_CONFORMER_ID>
00AB8DFA00000001

> <PUBCHEM_MMFF94_ENERGY>
50.6361

> <PUBCHEM_FEATURE_SELFOVERLAP>
30.472

> <PUBCHEM_SHAPE_FINGERPRINT>
10319926 262 18267576923920255922
10366900 7 18273208681783963239
11046707 91 17603300479228027291
11370993 144 17703242710485714835
11552529 35 18260540121925933634
12035758 1 18339656568610451585
12236239 1 17022625285975665751
12363563 72 18189906477235048731
12403814 3 17846773031511090597
12553582 1 18265352757657140495
12596602 18 17821723958045175408
12633257 1 18270410493679957859
12788726 201 18115329850444230185
12892183 10 18337379479665005378
12930653 34 18338234847438831110
13583140 156 18201431424983875298
13675066 3 18131630059081723062
14081887 123 18410294687992412491
14178342 30 18189056408480421758
14289901 80 18334020475699623002
14787075 74 17824542117784193152
15099037 37 18411134744676832749
15342168 16 15554456205673312643
15806764 133 17703241611390890028
16988056 13 10871353484012723531
17349148 13 17022624190912084058
17780758 139 18188193322254778434
17980427 23 17274270564776930737
17980427 26 17257917205608498741
1813 80 17677057952923963023
18186145 218 16630519649076637964
18219364 16 17346873429828431504
19049666 15 18056206764839608143
19862831 5 12540687133105119842
200 152 15357693102235104710
20671657 53 16660925603307244663
20681651 13 17314210216564644128
20871999 31 8574710178945740011
21033648 29 17702929362931227856
21065199 12 18342455916012703034
21304303 282 17827889886115246597
21650355 55 18408888468824086521
22122407 14 15913338983229098499
22182313 1 17774727446529043140
22646028 28 16443061720490914594
23366157 5 17467927702216721917
23419403 2 17755836947768905461
23503958 25 18202285780015799116
23503958 8 18188206507678016754
23557571 272 18410859832595046205
23559900 14 18268165170439695142
23845131 108 17619083737598071321
312423 11 17603879909382173508
3187 122 18410569595917135369
3729539 64 8357168573243211777
469060 322 17772446105550280143
602551 16 18261396676055056986
6049 1 17987815002866961204
633830 44 14692568862498292704
81228 2 18338535044868945073
84936 182 16898777086887836877
90316 7 18410585002396849217
9981440 41 17770753780818730657

> <PUBCHEM_SHAPE_MULTIPOLES>
421.32
9.55
3.1
1.63
5.63
3.53
-0.33
-3.69
4.8
-5.28
0.15
0.72
-0.32
1.78

> <PUBCHEM_SHAPE_SELFOVERLAP>
899.9

> <PUBCHEM_SHAPE_VOLUME>
236.6

> <PUBCHEM_COORDINATE_TYPE>
2
5
10

$$$$
