44251389
  -OEChem-03232009323D

 45 48  0     0  0  0  0  0  0999 V2000
   -1.3648    0.8694    0.0977 O   0  0  0  0  0  0  0  0  0  0  0  0
    4.6828   -1.2413    0.1902 O   0  0  0  0  0  0  0  0  0  0  0  0
   -4.9867   -1.8548   -0.0689 N   0  0  0  0  0  0  0  0  0  0  0  0
   -0.8285   -1.4151    0.0878 N   0  0  0  0  0  0  0  0  0  0  0  0
    2.6435   -0.1342    0.1646 N   0  0  0  0  0  0  0  0  0  0  0  0
    6.1421    1.9174   -0.9906 N   0  0  0  0  0  0  0  0  0  0  0  0
   -4.2317    0.2433    0.0042 C   0  0  0  0  0  0  0  0  0  0  0  0
   -5.3878   -0.5379   -0.0542 C   0  0  0  0  0  0  0  0  0  0  0  0
   -3.1245   -0.6504    0.0238 C   0  0  0  0  0  0  0  0  0  0  0  0
   -6.6726    0.0158   -0.0878 C   0  0  0  0  0  0  0  0  0  0  0  0
   -3.6206   -1.9328   -0.0221 C   0  0  0  0  0  0  0  0  0  0  0  0
   -4.3617    1.6460    0.0305 C   0  0  0  0  0  0  0  0  0  0  0  0
   -6.7769    1.4094   -0.0607 C   0  0  0  0  0  0  0  0  0  0  0  0
   -5.6406    2.2140   -0.0025 C   0  0  0  0  0  0  0  0  0  0  0  0
   -1.7269   -0.3279    0.0802 C   0  0  0  0  0  0  0  0  0  0  0  0
   -8.1281    2.0439   -0.0944 C   0  0  0  0  0  0  0  0  0  0  0  0
    0.5878   -1.4056    0.1149 C   0  0  0  0  0  0  0  0  0  0  0  0
    1.3130   -2.5920    0.1183 C   0  0  0  0  0  0  0  0  0  0  0  0
    1.2942   -0.2138    0.1385 C   0  0  0  0  0  0  0  0  0  0  0  0
    3.3143   -1.3080    0.1671 C   0  0  0  0  0  0  0  0  0  0  0  0
    2.7026   -2.5509    0.1449 C   0  0  0  0  0  0  0  0  0  0  0  0
    5.2569    0.0142    0.2089 C   0  0  0  0  0  0  0  0  0  0  0  0
    5.5805    0.6880   -0.9578 C   0  0  0  0  0  0  0  0  0  0  0  0
    5.5269    0.6423    1.4197 C   0  0  0  0  0  0  0  0  0  0  0  0
    5.3123    0.0575   -2.2846 C   0  0  0  0  0  0  0  0  0  0  0  0
    6.1045    1.9072    1.4267 C   0  0  0  0  0  0  0  0  0  0  0  0
    6.3902    2.4964    0.2057 C   0  0  0  0  0  0  0  0  0  0  0  0
   -5.6112   -2.6485   -0.1088 H   0  0  0  0  0  0  0  0  0  0  0  0
   -7.5513   -0.6197   -0.1348 H   0  0  0  0  0  0  0  0  0  0  0  0
   -3.1537   -2.9074   -0.0274 H   0  0  0  0  0  0  0  0  0  0  0  0
   -3.4935    2.2962    0.0756 H   0  0  0  0  0  0  0  0  0  0  0  0
   -5.7336    3.2973    0.0163 H   0  0  0  0  0  0  0  0  0  0  0  0
   -8.4117    2.2680   -1.1276 H   0  0  0  0  0  0  0  0  0  0  0  0
   -8.8871    1.3854    0.3417 H   0  0  0  0  0  0  0  0  0  0  0  0
   -8.1411    2.9738    0.4843 H   0  0  0  0  0  0  0  0  0  0  0  0
   -1.2156   -2.3538    0.0706 H   0  0  0  0  0  0  0  0  0  0  0  0
    0.8075   -3.5539    0.1002 H   0  0  0  0  0  0  0  0  0  0  0  0
    0.8371    0.7650    0.1383 H   0  0  0  0  0  0  0  0  0  0  0  0
    3.2828   -3.4671    0.1472 H   0  0  0  0  0  0  0  0  0  0  0  0
    5.2912    0.1522    2.3602 H   0  0  0  0  0  0  0  0  0  0  0  0
    4.2356   -0.0328   -2.4575 H   0  0  0  0  0  0  0  0  0  0  0  0
    5.7306    0.6629   -3.0960 H   0  0  0  0  0  0  0  0  0  0  0  0
    5.7726   -0.9341   -2.3425 H   0  0  0  0  0  0  0  0  0  0  0  0
    6.3239    2.4157    2.3585 H   0  0  0  0  0  0  0  0  0  0  0  0
    6.8409    3.4821    0.1567 H   0  0  0  0  0  0  0  0  0  0  0  0
  1 15  2  0  0  0  0
  2 20  1  0  0  0  0
  2 22  1  0  0  0  0
  3  8  1  0  0  0  0
  3 11  1  0  0  0  0
  3 28  1  0  0  0  0
  4 15  1  0  0  0  0
  4 17  1  0  0  0  0
  4 36  1  0  0  0  0
  5 19  1  0  0  0  0
  5 20  2  0  0  0  0
  6 23  1  0  0  0  0
  6 27  2  0  0  0  0
  7  8  2  0  0  0  0
  7  9  1  0  0  0  0
  7 12  1  0  0  0  0
  8 10  1  0  0  0  0
  9 11  2  0  0  0  0
  9 15  1  0  0  0  0
 10 13  2  0  0  0  0
 10 29  1  0  0  0  0
 11 30  1  0  0  0  0
 12 14  2  0  0  0  0
 12 31  1  0  0  0  0
 13 14  1  0  0  0  0
 13 16  1  0  0  0  0
 14 32  1  0  0  0  0
 16 33  1  0  0  0  0
 16 34  1  0  0  0  0
 16 35  1  0  0  0  0
 17 18  1  0  0  0  0
 17 19  2  0  0  0  0
 18 21  2  0  0  0  0
 18 37  1  0  0  0  0
 19 38  1  0  0  0  0
 20 21  1  0  0  0  0
 21 39  1  0  0  0  0
 22 23  2  0  0  0  0
 22 24  1  0  0  0  0
 23 25  1  0  0  0  0
 24 26  2  0  0  0  0
 24 40  1  0  0  0  0
 25 41  1  0  0  0  0
 25 42  1  0  0  0  0
 25 43  1  0  0  0  0
 26 27  1  0  0  0  0
 26 44  1  0  0  0  0
 27 45  1  0  0  0  0
M  END
> <PUBCHEM_COMPOUND_CID>
44251389

> <PUBCHEM_CONFORMER_RMSD>
0.8

> <PUBCHEM_CONFORMER_DIVERSEORDER>
1
70
22
2
34
86
32
82
49
87
79
24
69
20
55
83
31
50
78
4
39
68
3
88
62
63
75
52
36
44
71
65
85
35
84
74
7
28
13
54
19
38
61
8
73
80
60
41
77
43
56
9
58
14
59
26
47
16
66
51
5
67
10
64
48
6
15
46
33
40
12
76
57
21
30
45
29
11
18
53
42
27
81
23
37
25
17
72

> <PUBCHEM_MMFF94_PARTIAL_CHARGES>
38
1 -0.57
10 -0.15
11 -0.3
12 -0.15
13 -0.14
14 -0.15
15 0.72
16 0.14
17 0.12
18 -0.15
19 0.16
2 -0.17
20 0.39
21 -0.15
22 0.08
23 0.17
24 -0.15
25 0.14
26 -0.15
27 0.16
28 0.27
29 0.15
3 0.03
30 0.15
31 0.15
32 0.15
36 0.37
37 0.15
38 0.15
39 0.15
4 -0.55
40 0.15
44 0.15
45 0.15
5 -0.62
6 -0.62
8 -0.15
9 -0.09

> <PUBCHEM_EFFECTIVE_ROTOR_COUNT>
5

> <PUBCHEM_PHARMACOPHORE_FEATURES>
9
1 1 acceptor
1 3 cation
1 3 donor
1 4 donor
1 6 acceptor
5 3 7 8 9 11 rings
6 5 17 18 19 20 21 rings
6 6 22 23 24 26 27 rings
6 7 8 10 12 13 14 rings

> <PUBCHEM_HEAVY_ATOM_COUNT>
27

> <PUBCHEM_ATOM_DEF_STEREO_COUNT>
0

> <PUBCHEM_ATOM_UDEF_STEREO_COUNT>
0

> <PUBCHEM_BOND_DEF_STEREO_COUNT>
0

> <PUBCHEM_BOND_UDEF_STEREO_COUNT>
0

> <PUBCHEM_ISOTOPIC_ATOM_COUNT>
0

> <PUBCHEM_COMPONENT_COUNT>
1

> <PUBCHEM_CACTVS_TAUTO_COUNT>
5

> <PUBCHEM_CONFORMER_ID>
02A338FD00000001

> <PUBCHEM_MMFF94_ENERGY>
79.6987

> <PUBCHEM_FEATURE_SELFOVERLAP>
45.763

> <PUBCHEM_SHAPE_FINGERPRINT>
10 15 18113339700370591921
10411042 1 17762054342765140106
10554248 39 18267851809805471439
10595046 47 18410290307426749563
10835480 77 18412258428802654401
10906281 52 17895489080091459938
11007060 377 18336552642878957139
11211813 74 18341048524202897325
11408170 253 17773040761465088465
11991303 11 16415470593136380317
125118 31 18334575715775759025
12539765 74 17845658020074272895
13533116 47 16370997461312304642
14211702 104 9727339251814078637
14251764 18 18335420167324468655
14347332 77 11455897935855183867
14528608 73 18341896303206692070
14556957 393 16200164213158158593
14565420 104 18113896035631792306
14933364 13 18412263930381375921
15183329 4 18409732867441738849
15348495 7 13407084737903096028
15400415 2 18410291381147669459
15419008 145 18116136798133835696
16989713 51 17487890332093906943
16994733 274 18186799167323325369
17980427 23 17895196644606331911
20058555 10 18410291368162534229
20281389 69 18260545585256183289
20397935 70 11818992977032364320
20511986 3 18260820480564646687
21130935 74 18186518800047660019
21298829 104 18261679276482127964
21424621 283 18114181917476621835
21682296 61 8935002603000660625
23081809 10 18334569161550300203
23559900 14 18271796948273801385
23569943 247 11455350387649322637
23576562 1 17202746233821127205
24771293 8 18263921202234506476
2748736 6 18336255803886434228
34797466 226 17775573043578863574
3918712 181 18341325682511038456
4073 2 18187087269350327203
4340502 62 16298382466218410554
44249763 50 17774426313233752226
44317340 157 18202284689093865926
5080951 261 15936973067573442651
5109719 28 18338807826230527400
5265222 85 18202562900170075887
5372103 7 16199005397660936408
54583773 228 18410007768078293631
59682541 52 16630533908257239316
6328613 192 18413108342943895673
6898599 12 18201152260589171023
9831232 110 8646506132287685200

> <PUBCHEM_SHAPE_MULTIPOLES>
523.98
22.91
2.74
1.04
10.51
0.06
-0.33
-16.63
-1.03
-0.5
0.23
-2.42
-0.3
0.37

> <PUBCHEM_SHAPE_SELFOVERLAP>
1162.747

> <PUBCHEM_SHAPE_VOLUME>
279.1

> <PUBCHEM_COORDINATE_TYPE>
2
5
10

$$$$
