11357862
  -OEChem-03232009323D

 40 41  0     1  0  0  0  0  0999 V2000
   -1.1000    0.3622   -2.1133 O   0  0  0  0  0  0  0  0  0  0  0  0
    5.0690    0.1590    1.5486 O   0  5  0  0  0  0  0  0  0  0  0  0
    5.4197   -0.9371   -0.3209 O   0  0  0  0  0  0  0  0  0  0  0  0
   -2.7515   -0.7313   -0.0312 N   0  0  0  0  0  0  0  0  0  0  0  0
    4.6583   -0.3226    0.4649 N   0  3  0  0  0  0  0  0  0  0  0  0
   -1.8456    0.3876    0.1825 C   0  0  2  0  0  0  0  0  0  0  0  0
   -3.8227   -0.7801    0.9636 C   0  0  0  0  0  0  0  0  0  0  0  0
   -2.0764   -2.0245    0.0742 C   0  0  0  0  0  0  0  0  0  0  0  0
   -4.3820   -2.1848    0.7927 C   0  0  0  0  0  0  0  0  0  0  0  0
   -3.2333   -3.0033    0.2115 C   0  0  0  0  0  0  0  0  0  0  0  0
   -2.6301    1.7069    0.1061 C   0  0  0  0  0  0  0  0  0  0  0  0
   -0.7973    0.3011   -0.9226 C   0  0  0  0  0  0  0  0  0  0  0  0
   -1.7163    2.9298    0.2403 C   0  0  0  0  0  0  0  0  0  0  0  0
    0.6359    0.1356   -0.5577 C   0  0  0  0  0  0  0  0  0  0  0  0
   -2.5053    4.2259    0.1403 C   0  0  0  0  0  0  0  0  0  0  0  0
    1.0820    0.6648    0.6341 C   0  0  0  0  0  0  0  0  0  0  0  0
    1.4681   -0.5396   -1.4243 C   0  0  0  0  0  0  0  0  0  0  0  0
    2.4256    0.5112    0.9759 C   0  0  0  0  0  0  0  0  0  0  0  0
    2.8117   -0.6931   -1.0825 C   0  0  0  0  0  0  0  0  0  0  0  0
    3.2905   -0.1678    0.1177 C   0  0  0  0  0  0  0  0  0  0  0  0
   -1.3975    0.2999    1.1763 H   0  0  0  0  0  0  0  0  0  0  0  0
   -4.6114   -0.0429    0.7848 H   0  0  0  0  0  0  0  0  0  0  0  0
   -3.4425   -0.6553    1.9856 H   0  0  0  0  0  0  0  0  0  0  0  0
   -1.4725   -2.2695   -0.8053 H   0  0  0  0  0  0  0  0  0  0  0  0
   -1.4388   -2.0830    0.9660 H   0  0  0  0  0  0  0  0  0  0  0  0
   -4.7318   -2.5964    1.7449 H   0  0  0  0  0  0  0  0  0  0  0  0
   -5.2276   -2.1863    0.0947 H   0  0  0  0  0  0  0  0  0  0  0  0
   -3.5227   -3.4051   -0.7667 H   0  0  0  0  0  0  0  0  0  0  0  0
   -2.9702   -3.8475    0.8569 H   0  0  0  0  0  0  0  0  0  0  0  0
   -3.1716    1.7720   -0.8472 H   0  0  0  0  0  0  0  0  0  0  0  0
   -3.3765    1.7662    0.9067 H   0  0  0  0  0  0  0  0  0  0  0  0
   -1.2018    2.9046    1.2071 H   0  0  0  0  0  0  0  0  0  0  0  0
   -0.9508    2.9326   -0.5428 H   0  0  0  0  0  0  0  0  0  0  0  0
   -3.0110    4.3038   -0.8275 H   0  0  0  0  0  0  0  0  0  0  0  0
   -1.8362    5.0859    0.2440 H   0  0  0  0  0  0  0  0  0  0  0  0
   -3.2615    4.2874    0.9294 H   0  0  0  0  0  0  0  0  0  0  0  0
    0.4528    1.2239    1.3155 H   0  0  0  0  0  0  0  0  0  0  0  0
    1.1078   -0.9587   -2.3590 H   0  0  0  0  0  0  0  0  0  0  0  0
    2.7653    0.9394    1.9157 H   0  0  0  0  0  0  0  0  0  0  0  0
    3.4560   -1.2289   -1.7749 H   0  0  0  0  0  0  0  0  0  0  0  0
  1 12  2  0  0  0  0
  2  5  1  0  0  0  0
  3  5  2  0  0  0  0
  4  6  1  0  0  0  0
  4  7  1  0  0  0  0
  4  8  1  0  0  0  0
  5 20  1  0  0  0  0
  6 11  1  0  0  0  0
  6 12  1  0  0  0  0
  6 21  1  0  0  0  0
  7  9  1  0  0  0  0
  7 22  1  0  0  0  0
  7 23  1  0  0  0  0
  8 10  1  0  0  0  0
  8 24  1  0  0  0  0
  8 25  1  0  0  0  0
  9 10  1  0  0  0  0
  9 26  1  0  0  0  0
  9 27  1  0  0  0  0
 10 28  1  0  0  0  0
 10 29  1  0  0  0  0
 11 13  1  0  0  0  0
 11 30  1  0  0  0  0
 11 31  1  0  0  0  0
 12 14  1  0  0  0  0
 13 15  1  0  0  0  0
 13 32  1  0  0  0  0
 13 33  1  0  0  0  0
 14 16  2  0  0  0  0
 14 17  1  0  0  0  0
 15 34  1  0  0  0  0
 15 35  1  0  0  0  0
 15 36  1  0  0  0  0
 16 18  1  0  0  0  0
 16 37  1  0  0  0  0
 17 19  2  0  0  0  0
 17 38  1  0  0  0  0
 18 20  2  0  0  0  0
 18 39  1  0  0  0  0
 19 20  1  0  0  0  0
 19 40  1  0  0  0  0
M  CHG  2   2  -1   5   1
M  END
> <PUBCHEM_COMPOUND_CID>
11357862

> <PUBCHEM_CONFORMER_RMSD>
0.8

> <PUBCHEM_CONFORMER_DIVERSEORDER>
1
7
12
22
13
16
23
9
3
14
6
5
15
4
21
2
8
11
17
19
10
20
18

> <PUBCHEM_MMFF94_PARTIAL_CHARGES>
19
1 -0.57
12 0.42
14 0.09
16 -0.15
17 -0.15
18 -0.15
19 -0.15
2 -0.52
20 0.13
3 -0.52
37 0.15
38 0.15
39 0.15
4 -0.81
40 0.15
5 0.91
6 0.33
7 0.27
8 0.27

> <PUBCHEM_EFFECTIVE_ROTOR_COUNT>
7

> <PUBCHEM_PHARMACOPHORE_FEATURES>
8
1 1 acceptor
1 15 hydrophobe
1 2 acceptor
1 2 anion
1 3 acceptor
1 4 cation
5 4 7 8 9 10 rings
6 14 16 17 18 19 20 rings

> <PUBCHEM_HEAVY_ATOM_COUNT>
20

> <PUBCHEM_ATOM_DEF_STEREO_COUNT>
0

> <PUBCHEM_ATOM_UDEF_STEREO_COUNT>
1

> <PUBCHEM_BOND_DEF_STEREO_COUNT>
0

> <PUBCHEM_BOND_UDEF_STEREO_COUNT>
0

> <PUBCHEM_ISOTOPIC_ATOM_COUNT>
0

> <PUBCHEM_COMPONENT_COUNT>
1

> <PUBCHEM_CACTVS_TAUTO_COUNT>
2

> <PUBCHEM_CONFORMER_ID>
00AD4EA600000001

> <PUBCHEM_MMFF94_ENERGY>
47.5448

> <PUBCHEM_FEATURE_SELFOVERLAP>
40.676

> <PUBCHEM_SHAPE_FINGERPRINT>
10319926 262 18268981013269800994
10366900 7 18202272589732941383
11046707 91 17895188934823419755
11056379 131 18337966626962941038
11357001 24 18410293601555480017
12173636 292 18193839241306818397
12403814 3 17775278395921644509
12500047 106 18266459793634855396
12553582 1 18194422171632898831
12633257 1 17987815110431216859
12788726 201 18189638153331867649
12892183 10 18339348713606634546
12930653 34 18340769226083275526
13009979 54 18042141984017128087
13583140 156 18059848425166550522
13675066 3 17989484105016029068
14081887 123 18411983550711204507
14178342 30 18334860459370034790
14289901 80 18335145284742814328
14787075 74 17753888621480191848
15099037 37 18412825793592020342
15842332 3 17677637326742627804
15885798 251 18338526351807535491
17780758 139 18262503819960556842
17844677 252 18410863149021942048
1813 80 17749959971739146215
18219364 16 16917063343572326148
19049666 15 17985558757730528015
200 152 15791446041319793406
20600515 1 18128556993002240425
20645477 70 16557623011512722596
20671657 53 17023465381916296039
20681651 13 17604691288728649368
21065199 12 18343581820293634162
21650355 55 18410859901767885185
22112679 90 17604165751945180509
22182313 1 17488754367691107396
23366157 5 17470176216380347781
23402539 116 18272365387274242639
23419403 2 17684899769001545381
23493267 7 18198618839848624736
23503958 8 18334290938201046826
23557571 272 18272097041527700916
23559900 14 18337103574559458825
23845131 108 17691987964216179729
312423 11 17895209821644857100
3759504 43 18194397788766144101
5104073 3 18272081661819104538
59755656 520 18118960283326209101
602551 16 18336266820884263170
6049 1 17845673451053172444
633830 44 14045739374670443368
7364860 26 17619363438588893629
77188 2 18193841672622466889
81228 2 18340786866215450169
84936 182 17188694139757137249
90127 26 17988916744199961480
90316 7 18339656615448578105

> <PUBCHEM_SHAPE_MULTIPOLES>
384.02
9.12
3.32
1.27
9.97
3.21
-0.32
-4.48
3.17
-6.05
0.4
0.62
-0.06
0.8

> <PUBCHEM_SHAPE_SELFOVERLAP>
800.405

> <PUBCHEM_SHAPE_VOLUME>
220.8

> <PUBCHEM_COORDINATE_TYPE>
2
5
10

$$$$
