11220599
  -OEChem-03232009323D

 38 39  0     1  0  0  0  0  0999 V2000
    5.5960   -0.7377    0.9283 Br  0  0  0  0  0  0  0  0  0  0  0  0
   -0.4165    0.3646   -2.0735 O   0  0  0  0  0  0  0  0  0  0  0  0
   -2.2324   -0.6471   -0.0892 N   0  0  0  0  0  0  0  0  0  0  0  0
   -1.2778    0.4177    0.1810 C   0  0  2  0  0  0  0  0  0  0  0  0
   -3.3548   -0.6418    0.8486 C   0  0  0  0  0  0  0  0  0  0  0  0
   -1.6368   -1.9769    0.0391 C   0  0  0  0  0  0  0  0  0  0  0  0
   -3.9820   -2.0118    0.6364 C   0  0  0  0  0  0  0  0  0  0  0  0
   -2.8521   -2.8900    0.1078 C   0  0  0  0  0  0  0  0  0  0  0  0
   -1.9824    1.7795    0.0763 C   0  0  0  0  0  0  0  0  0  0  0  0
   -0.1799    0.2793   -0.8694 C   0  0  0  0  0  0  0  0  0  0  0  0
   -1.0100    2.9483    0.2684 C   0  0  0  0  0  0  0  0  0  0  0  0
    1.2209    0.0313   -0.4326 C   0  0  0  0  0  0  0  0  0  0  0  0
   -1.7192    4.2873    0.1396 C   0  0  0  0  0  0  0  0  0  0  0  0
    1.6340    0.5269    0.7854 C   0  0  0  0  0  0  0  0  0  0  0  0
    2.0578   -0.6843   -1.2617 C   0  0  0  0  0  0  0  0  0  0  0  0
    2.9475    0.2958    1.1939 C   0  0  0  0  0  0  0  0  0  0  0  0
    3.3713   -0.9155   -0.8532 C   0  0  0  0  0  0  0  0  0  0  0  0
    3.8162   -0.4254    0.3748 C   0  0  0  0  0  0  0  0  0  0  0  0
   -0.8872    0.2989    1.1958 H   0  0  0  0  0  0  0  0  0  0  0  0
   -4.0908    0.1396    0.6361 H   0  0  0  0  0  0  0  0  0  0  0  0
   -3.0218   -0.5449    1.8900 H   0  0  0  0  0  0  0  0  0  0  0  0
   -1.0507   -2.0766    0.9620 H   0  0  0  0  0  0  0  0  0  0  0  0
   -1.0027   -2.2501   -0.8103 H   0  0  0  0  0  0  0  0  0  0  0  0
   -4.7890   -1.9615   -0.1042 H   0  0  0  0  0  0  0  0  0  0  0  0
   -4.4031   -2.4090    1.5655 H   0  0  0  0  0  0  0  0  0  0  0  0
   -2.6705   -3.7516    0.7583 H   0  0  0  0  0  0  0  0  0  0  0  0
   -3.1123   -3.2688   -0.8876 H   0  0  0  0  0  0  0  0  0  0  0  0
   -2.7648    1.8757    0.8378 H   0  0  0  0  0  0  0  0  0  0  0  0
   -2.4691    1.8808   -0.9030 H   0  0  0  0  0  0  0  0  0  0  0  0
   -0.2059    2.9128   -0.4741 H   0  0  0  0  0  0  0  0  0  0  0  0
   -0.5485    2.8881    1.2602 H   0  0  0  0  0  0  0  0  0  0  0  0
   -2.5107    4.3863    0.8893 H   0  0  0  0  0  0  0  0  0  0  0  0
   -1.0095    5.1076    0.2853 H   0  0  0  0  0  0  0  0  0  0  0  0
   -2.1688    4.3992   -0.8522 H   0  0  0  0  0  0  0  0  0  0  0  0
    1.0030    1.1162    1.4391 H   0  0  0  0  0  0  0  0  0  0  0  0
    1.7237   -1.0767   -2.2174 H   0  0  0  0  0  0  0  0  0  0  0  0
    3.2808    0.6900    2.1506 H   0  0  0  0  0  0  0  0  0  0  0  0
    4.0351   -1.4805   -1.5027 H   0  0  0  0  0  0  0  0  0  0  0  0
  1 18  1  0  0  0  0
  2 10  2  0  0  0  0
  3  4  1  0  0  0  0
  3  5  1  0  0  0  0
  3  6  1  0  0  0  0
  4  9  1  0  0  0  0
  4 10  1  0  0  0  0
  4 19  1  0  0  0  0
  5  7  1  0  0  0  0
  5 20  1  0  0  0  0
  5 21  1  0  0  0  0
  6  8  1  0  0  0  0
  6 22  1  0  0  0  0
  6 23  1  0  0  0  0
  7  8  1  0  0  0  0
  7 24  1  0  0  0  0
  7 25  1  0  0  0  0
  8 26  1  0  0  0  0
  8 27  1  0  0  0  0
  9 11  1  0  0  0  0
  9 28  1  0  0  0  0
  9 29  1  0  0  0  0
 10 12  1  0  0  0  0
 11 13  1  0  0  0  0
 11 30  1  0  0  0  0
 11 31  1  0  0  0  0
 12 14  2  0  0  0  0
 12 15  1  0  0  0  0
 13 32  1  0  0  0  0
 13 33  1  0  0  0  0
 13 34  1  0  0  0  0
 14 16  1  0  0  0  0
 14 35  1  0  0  0  0
 15 17  2  0  0  0  0
 15 36  1  0  0  0  0
 16 18  2  0  0  0  0
 16 37  1  0  0  0  0
 17 18  1  0  0  0  0
 17 38  1  0  0  0  0
M  END
> <PUBCHEM_COMPOUND_CID>
11220599

> <PUBCHEM_CONFORMER_RMSD>
0.8

> <PUBCHEM_CONFORMER_DIVERSEORDER>
1
12
21
24
16
9
4
13
25
23
20
8
6
17
5
15
18
14
10
3
22
11
7
19
2

> <PUBCHEM_MMFF94_PARTIAL_CHARGES>
17
1 -0.11
10 0.42
12 0.09
14 -0.15
15 -0.15
16 -0.15
17 -0.15
18 0.11
2 -0.57
3 -0.81
35 0.15
36 0.15
37 0.15
38 0.15
4 0.33
5 0.27
6 0.27

> <PUBCHEM_EFFECTIVE_ROTOR_COUNT>
6

> <PUBCHEM_PHARMACOPHORE_FEATURES>
6
1 1 hydrophobe
1 13 hydrophobe
1 2 acceptor
1 3 cation
5 3 5 6 7 8 rings
6 12 14 15 16 17 18 rings

> <PUBCHEM_HEAVY_ATOM_COUNT>
18

> <PUBCHEM_ATOM_DEF_STEREO_COUNT>
0

> <PUBCHEM_ATOM_UDEF_STEREO_COUNT>
1

> <PUBCHEM_BOND_DEF_STEREO_COUNT>
0

> <PUBCHEM_BOND_UDEF_STEREO_COUNT>
0

> <PUBCHEM_ISOTOPIC_ATOM_COUNT>
0

> <PUBCHEM_COMPONENT_COUNT>
1

> <PUBCHEM_CACTVS_TAUTO_COUNT>
2

> <PUBCHEM_CONFORMER_ID>
00AB367700000001

> <PUBCHEM_MMFF94_ENERGY>
36.2948

> <PUBCHEM_FEATURE_SELFOVERLAP>
30.446

> <PUBCHEM_SHAPE_FINGERPRINT>
10319926 262 18269258081763118370
10366900 7 18130776846284538962
11046707 91 17968089837432363602
11357001 24 18410572860012541929
11578080 2 17605818429997404021
12173636 292 18194119603533597485
12251169 10 17346042280510622023
12363563 72 18264775526631550331
12500047 106 18122344580079203172
12532896 13 17908701735302904557
12553582 1 18266759032802245151
12633257 1 17988372549598823059
12788726 201 18261692431364905880
12824470 246 17822280284689411050
12930653 34 18268708321026501862
13294875 104 16973914429763207736
13583140 156 17987500560306900962
136203 1 18338239267340058529
13675066 3 17917702471433257026
14178342 30 18263081024889509438
14289901 80 18335143077293115616
14787075 74 17753887522095106240
15099037 37 18413103957560467278
15842332 3 17750538220740343012
15885798 251 18338524135446161731
16752209 62 18113890555559067727
16945 1 18338806627918469957
17780758 139 18191005851808928466
17844478 74 18131069337899895088
17980427 26 17115211578190546413
18186145 218 12035715531549328079
18219364 16 16917058941552542632
19049666 15 17985838020851874158
200 152 15791726408558977438
20361792 2 17240761843185804575
20510252 161 18341897342251109385
20600515 1 18200893849913588233
20671657 53 17095804433466254791
20681677 274 18339071700810755280
21421861 104 17114955937896080635
21524375 3 17479731620312285509
21650355 55 18410856585784133353
22182313 1 17417254217753783364
23366157 5 17614006613585411877
23402539 116 18272362067158956333
23419403 2 17612274818083652037
23493267 7 18198615528676674992
23503958 8 18262512598884486658
23557571 272 18411416207106485496
23559900 14 18270696250971203742
23845131 108 17619927058616080705
3091708 16 8917669850166333393
314173 85 18340777026012877811
5902787 121 18191871343052564771
59755656 520 17974560304184356645
6049 1 17845666849989066684
6442390 28 17836663928633237009
7364860 26 17691417720948579957
77188 2 18265894851143916217
81228 2 18340782455025593865
90316 7 18411710897834618777

> <PUBCHEM_SHAPE_MULTIPOLES>
365.52
8.19
3.44
1.23
9.27
3.63
-0.37
-4.75
2.98
-5.4
0.42
0.61
-0.08
0.46

> <PUBCHEM_SHAPE_SELFOVERLAP>
742.569

> <PUBCHEM_SHAPE_VOLUME>
218

> <PUBCHEM_COORDINATE_TYPE>
2
5
10

$$$$
