11277680
  -OEChem-03232009323D

 45 46  0     1  0  0  0  0  0999 V2000
   -1.6549    0.3495   -2.1479 O   0  0  0  0  0  0  0  0  0  0  0  0
    4.7733    0.5132    1.7821 O   0  0  0  0  0  0  0  0  0  0  0  0
   -3.0891   -0.6825    0.1185 N   0  0  0  0  0  0  0  0  0  0  0  0
    4.3129   -0.5548   -0.2687 N   0  0  0  0  0  0  0  0  0  0  0  0
   -2.1230    0.4013    0.2196 C   0  0  2  0  0  0  0  0  0  0  0  0
   -2.4552   -2.0003    0.1483 C   0  0  0  0  0  0  0  0  0  0  0  0
   -4.0365   -0.6917    1.2328 C   0  0  0  0  0  0  0  0  0  0  0  0
   -3.6236   -2.9350    0.4247 C   0  0  0  0  0  0  0  0  0  0  0  0
   -4.6643   -2.0742    1.1342 C   0  0  0  0  0  0  0  0  0  0  0  0
   -2.8610    1.7493    0.2314 C   0  0  0  0  0  0  0  0  0  0  0  0
   -1.2164    0.2762   -1.0010 C   0  0  0  0  0  0  0  0  0  0  0  0
   -1.8926    2.9368    0.2523 C   0  0  0  0  0  0  0  0  0  0  0  0
    0.2426    0.0566   -0.8069 C   0  0  0  0  0  0  0  0  0  0  0  0
   -2.6388    4.2618    0.2413 C   0  0  0  0  0  0  0  0  0  0  0  0
    0.8465    0.5673    0.3217 C   0  0  0  0  0  0  0  0  0  0  0  0
    0.9399   -0.6495   -1.7634 C   0  0  0  0  0  0  0  0  0  0  0  0
    2.2144    0.3621    0.5027 C   0  0  0  0  0  0  0  0  0  0  0  0
    2.3077   -0.8547   -1.5823 C   0  0  0  0  0  0  0  0  0  0  0  0
    2.9449   -0.3490   -0.4493 C   0  0  0  0  0  0  0  0  0  0  0  0
    5.1192   -0.1274    0.7947 C   0  0  0  0  0  0  0  0  0  0  0  0
    6.5543   -0.5548    0.6153 C   0  0  0  0  0  0  0  0  0  0  0  0
   -1.5642    0.2961    1.1541 H   0  0  0  0  0  0  0  0  0  0  0  0
   -1.7195   -2.0835    0.9589 H   0  0  0  0  0  0  0  0  0  0  0  0
   -1.9689   -2.2673   -0.7953 H   0  0  0  0  0  0  0  0  0  0  0  0
   -4.8126    0.0747    1.1455 H   0  0  0  0  0  0  0  0  0  0  0  0
   -3.5340   -0.5821    2.2024 H   0  0  0  0  0  0  0  0  0  0  0  0
   -4.0414   -3.3249   -0.5110 H   0  0  0  0  0  0  0  0  0  0  0  0
   -3.3181   -3.7889    1.0378 H   0  0  0  0  0  0  0  0  0  0  0  0
   -4.9145   -2.4730    2.1225 H   0  0  0  0  0  0  0  0  0  0  0  0
   -5.5858   -2.0434    0.5408 H   0  0  0  0  0  0  0  0  0  0  0  0
   -3.5051    1.8360    1.1142 H   0  0  0  0  0  0  0  0  0  0  0  0
   -3.5084    1.8354   -0.6517 H   0  0  0  0  0  0  0  0  0  0  0  0
   -1.2689    2.8914    1.1518 H   0  0  0  0  0  0  0  0  0  0  0  0
   -1.2253    2.9113   -0.6155 H   0  0  0  0  0  0  0  0  0  0  0  0
   -3.2518    4.3592   -0.6605 H   0  0  0  0  0  0  0  0  0  0  0  0
   -1.9304    5.0959    0.2621 H   0  0  0  0  0  0  0  0  0  0  0  0
   -3.2938    4.3511    1.1138 H   0  0  0  0  0  0  0  0  0  0  0  0
    0.3232    1.1496    1.0701 H   0  0  0  0  0  0  0  0  0  0  0  0
    0.4562   -1.0542   -2.6473 H   0  0  0  0  0  0  0  0  0  0  0  0
    2.6392    0.7894    1.4003 H   0  0  0  0  0  0  0  0  0  0  0  0
    2.8643   -1.4120   -2.3317 H   0  0  0  0  0  0  0  0  0  0  0  0
    4.7738   -1.0823   -1.0073 H   0  0  0  0  0  0  0  0  0  0  0  0
    6.9484   -0.1488   -0.3206 H   0  0  0  0  0  0  0  0  0  0  0  0
    7.1591   -0.1808    1.4460 H   0  0  0  0  0  0  0  0  0  0  0  0
    6.6145   -1.6465    0.5946 H   0  0  0  0  0  0  0  0  0  0  0  0
  1 11  2  0  0  0  0
  2 20  2  0  0  0  0
  3  5  1  0  0  0  0
  3  6  1  0  0  0  0
  3  7  1  0  0  0  0
  4 19  1  0  0  0  0
  4 20  1  0  0  0  0
  4 42  1  0  0  0  0
  5 10  1  0  0  0  0
  5 11  1  0  0  0  0
  5 22  1  0  0  0  0
  6  8  1  0  0  0  0
  6 23  1  0  0  0  0
  6 24  1  0  0  0  0
  7  9  1  0  0  0  0
  7 25  1  0  0  0  0
  7 26  1  0  0  0  0
  8  9  1  0  0  0  0
  8 27  1  0  0  0  0
  8 28  1  0  0  0  0
  9 29  1  0  0  0  0
  9 30  1  0  0  0  0
 10 12  1  0  0  0  0
 10 31  1  0  0  0  0
 10 32  1  0  0  0  0
 11 13  1  0  0  0  0
 12 14  1  0  0  0  0
 12 33  1  0  0  0  0
 12 34  1  0  0  0  0
 13 15  2  0  0  0  0
 13 16  1  0  0  0  0
 14 35  1  0  0  0  0
 14 36  1  0  0  0  0
 14 37  1  0  0  0  0
 15 17  1  0  0  0  0
 15 38  1  0  0  0  0
 16 18  2  0  0  0  0
 16 39  1  0  0  0  0
 17 19  2  0  0  0  0
 17 40  1  0  0  0  0
 18 19  1  0  0  0  0
 18 41  1  0  0  0  0
 20 21  1  0  0  0  0
 21 43  1  0  0  0  0
 21 44  1  0  0  0  0
 21 45  1  0  0  0  0
M  END
> <PUBCHEM_COMPOUND_CID>
11277680

> <PUBCHEM_CONFORMER_RMSD>
0.8

> <PUBCHEM_CONFORMER_DIVERSEORDER>
1
9
23
30
31
46
16
48
15
33
44
32
22
40
49
37
29
11
42
12
28
39
45
47
43
34
10
17
38
25
8
26
24
6
7
27
41
5
13
35
21
36
14
19
20
18
2
4
3

> <PUBCHEM_MMFF94_PARTIAL_CHARGES>
21
1 -0.57
11 0.42
13 0.09
15 -0.15
16 -0.15
17 -0.15
18 -0.15
19 0.12
2 -0.57
20 0.57
21 0.06
3 -0.81
38 0.15
39 0.15
4 -0.55
40 0.15
41 0.15
42 0.37
5 0.33
6 0.27
7 0.27

> <PUBCHEM_EFFECTIVE_ROTOR_COUNT>
8

> <PUBCHEM_PHARMACOPHORE_FEATURES>
7
1 1 acceptor
1 14 hydrophobe
1 2 acceptor
1 3 cation
1 4 donor
5 3 6 7 8 9 rings
6 13 15 16 17 18 19 rings

> <PUBCHEM_HEAVY_ATOM_COUNT>
21

> <PUBCHEM_ATOM_DEF_STEREO_COUNT>
0

> <PUBCHEM_ATOM_UDEF_STEREO_COUNT>
1

> <PUBCHEM_BOND_DEF_STEREO_COUNT>
0

> <PUBCHEM_BOND_UDEF_STEREO_COUNT>
0

> <PUBCHEM_ISOTOPIC_ATOM_COUNT>
0

> <PUBCHEM_COMPONENT_COUNT>
1

> <PUBCHEM_CACTVS_TAUTO_COUNT>
9

> <PUBCHEM_CONFORMER_ID>
00AC157000000001

> <PUBCHEM_MMFF94_ENERGY>
49.3834

> <PUBCHEM_FEATURE_SELFOVERLAP>
35.52

> <PUBCHEM_SHAPE_FINGERPRINT>
10319926 262 18341045199982340186
11046707 91 17749387095952721095
11315181 36 18040715866286529076
11552529 35 18334566954237524202
12035758 1 18269857371461185433
12236239 1 17313108574353397302
12403814 3 17775281685977376061
12596602 18 18113332029685790264
12633257 1 18200608002343685443
12788726 201 18189357782188073891
12892183 10 18411130317251515242
12930653 34 18339644425619501854
13288520 33 17603301561760232998
13583140 156 18130780123539829794
13675066 3 17988645168943344878
14081887 123 18411707569118965163
14178342 30 18262525788270019118
14289901 80 18335149678404628704
14565420 104 17407134162335045185
14844126 61 18335140899586753203
15099037 37 18412826893087849837
15842332 3 17532681012107954084
17349148 13 16805324409627626106
17780758 139 18333725806372408610
17844677 252 18410578384084536544
19049666 15 17913226273148700143
19784866 240 16805324426559841515
200 152 15719388451550478542
20600515 1 18128559196357289113
20645477 70 14490197132929585226
20681651 13 17532352215339889816
21033648 29 17560220454643558152
21065199 12 18271529702175595286
21304303 282 18045761413799458821
21315759 148 18411420597154068370
21401589 2 17913495640739892777
21650355 55 18410580625882988859
22182313 1 17560249016075895076
23366157 5 17470180610205764077
23402539 116 18334292097694633815
23419403 2 17829585595127796957
23522609 53 17533523170392736044
23557571 272 18199484194001669276
23559900 14 18262511619252173633
312423 11 17749403584722366092
314194 84 15430036522884765320
633830 44 14189576364739984148
77188 2 18193278727016812425
81228 2 18196397891254544249
90316 7 18339662104522290401
9981440 41 17772171042838325237

> <PUBCHEM_SHAPE_MULTIPOLES>
410.47
11.19
3.13
1.48
16.1
3.16
-0.48
-4.36
5.81
-6.47
0.67
0.57
-0.24
1.02

> <PUBCHEM_SHAPE_SELFOVERLAP>
848.33

> <PUBCHEM_SHAPE_VOLUME>
237

> <PUBCHEM_COORDINATE_TYPE>
2
5
10

$$$$
