11304851
  -OEChem-03232009323D

 44 47  0     0  0  0  0  0  0999 V2000
   -1.8118   -0.8773    1.5879 S   0  0  0  0  0  0  0  0  0  0  0  0
   -1.7755    0.0028    2.7419 O   0  0  0  0  0  0  0  0  0  0  0  0
   -2.2316   -2.2599    1.7289 O   0  0  0  0  0  0  0  0  0  0  0  0
   -3.0955    1.3570   -2.8489 O   0  0  0  0  0  0  0  0  0  0  0  0
    3.7252    0.4399   -1.1895 O   0  0  0  0  0  0  0  0  0  0  0  0
   -7.4057    1.1514   -0.4165 O   0  5  0  0  0  0  0  0  0  0  0  0
   -6.9430    0.2017    1.5079 O   0  0  0  0  0  0  0  0  0  0  0  0
   -1.1856    0.2112   -1.1433 N   0  0  0  0  0  0  0  0  0  0  0  0
   -0.3604   -0.8405    0.8518 N   0  0  0  0  0  0  0  0  0  0  0  0
    1.0271   -0.3214   -0.9449 N   0  0  0  0  0  0  0  0  0  0  0  0
   -6.5904    0.6306    0.3826 N   0  3  0  0  0  0  0  0  0  0  0  0
   -2.9686   -0.1465    0.4758 C   0  0  0  0  0  0  0  0  0  0  0  0
   -2.5259    0.3141   -0.7625 C   0  0  0  0  0  0  0  0  0  0  0  0
   -0.2084   -0.3406   -0.3432 C   0  0  0  0  0  0  0  0  0  0  0  0
   -4.3034   -0.0508    0.8709 C   0  0  0  0  0  0  0  0  0  0  0  0
   -3.4695    0.8881   -1.6230 C   0  0  0  0  0  0  0  0  0  0  0  0
   -5.2267    0.5231    0.0016 C   0  0  0  0  0  0  0  0  0  0  0  0
   -4.8111    0.9923   -1.2441 C   0  0  0  0  0  0  0  0  0  0  0  0
    2.0614   -1.2333   -0.7525 C   0  0  0  0  0  0  0  0  0  0  0  0
    3.4068   -0.8476   -0.8756 C   0  0  0  0  0  0  0  0  0  0  0  0
    1.7717   -2.5688   -0.4275 C   0  0  0  0  0  0  0  0  0  0  0  0
    4.4331   -1.7716   -0.6795 C   0  0  0  0  0  0  0  0  0  0  0  0
    2.7981   -3.4928   -0.2314 C   0  0  0  0  0  0  0  0  0  0  0  0
    4.1288   -3.0943   -0.3573 C   0  0  0  0  0  0  0  0  0  0  0  0
    4.4953    1.1494   -0.2845 C   0  0  0  0  0  0  0  0  0  0  0  0
    4.1847    1.0846    1.0622 C   0  0  0  0  0  0  0  0  0  0  0  0
    5.5558    1.9067   -0.7491 C   0  0  0  0  0  0  0  0  0  0  0  0
    4.9602    1.8004    1.9742 C   0  0  0  0  0  0  0  0  0  0  0  0
    6.3314    2.6226    0.1628 C   0  0  0  0  0  0  0  0  0  0  0  0
    6.0336    2.5694    1.5245 C   0  0  0  0  0  0  0  0  0  0  0  0
   -0.9030    0.6011   -2.0321 H   0  0  0  0  0  0  0  0  0  0  0  0
   -4.5961   -0.4259    1.8480 H   0  0  0  0  0  0  0  0  0  0  0  0
   -5.5096    1.4453   -1.9442 H   0  0  0  0  0  0  0  0  0  0  0  0
    1.2281    0.4217   -1.6071 H   0  0  0  0  0  0  0  0  0  0  0  0
    0.7463   -2.9210   -0.3463 H   0  0  0  0  0  0  0  0  0  0  0  0
    5.4753   -1.4815   -0.7846 H   0  0  0  0  0  0  0  0  0  0  0  0
    2.5613   -4.5242    0.0132 H   0  0  0  0  0  0  0  0  0  0  0  0
   -2.2363    0.9873   -3.1014 H   0  0  0  0  0  0  0  0  0  0  0  0
    4.9278   -3.8147   -0.2084 H   0  0  0  0  0  0  0  0  0  0  0  0
    3.3431    0.5095    1.4361 H   0  0  0  0  0  0  0  0  0  0  0  0
    5.7889    1.9489   -1.8088 H   0  0  0  0  0  0  0  0  0  0  0  0
    4.7257    1.7628    3.0340 H   0  0  0  0  0  0  0  0  0  0  0  0
    7.1669    3.2215   -0.1874 H   0  0  0  0  0  0  0  0  0  0  0  0
    6.6367    3.1277    2.2345 H   0  0  0  0  0  0  0  0  0  0  0  0
  1  2  2  0  0  0  0
  1  3  2  0  0  0  0
  1  9  1  0  0  0  0
  1 12  1  0  0  0  0
  4 16  1  0  0  0  0
  4 38  1  0  0  0  0
  5 20  1  0  0  0  0
  5 25  1  0  0  0  0
  6 11  1  0  0  0  0
  7 11  2  0  0  0  0
  8 13  1  0  0  0  0
  8 14  1  0  0  0  0
  8 31  1  0  0  0  0
  9 14  2  0  0  0  0
 10 14  1  0  0  0  0
 10 19  1  0  0  0  0
 10 34  1  0  0  0  0
 11 17  1  0  0  0  0
 12 13  1  0  0  0  0
 12 15  2  0  0  0  0
 13 16  2  0  0  0  0
 15 17  1  0  0  0  0
 15 32  1  0  0  0  0
 16 18  1  0  0  0  0
 17 18  2  0  0  0  0
 18 33  1  0  0  0  0
 19 20  1  0  0  0  0
 19 21  2  0  0  0  0
 20 22  2  0  0  0  0
 21 23  1  0  0  0  0
 21 35  1  0  0  0  0
 22 24  1  0  0  0  0
 22 36  1  0  0  0  0
 23 24  2  0  0  0  0
 23 37  1  0  0  0  0
 24 39  1  0  0  0  0
 25 26  2  0  0  0  0
 25 27  1  0  0  0  0
 26 28  1  0  0  0  0
 26 40  1  0  0  0  0
 27 29  2  0  0  0  0
 27 41  1  0  0  0  0
 28 30  2  0  0  0  0
 28 42  1  0  0  0  0
 29 30  1  0  0  0  0
 29 43  1  0  0  0  0
 30 44  1  0  0  0  0
M  CHG  2   6  -1  11   1
M  END
> <PUBCHEM_COMPOUND_CID>
11304851

> <PUBCHEM_CONFORMER_RMSD>
0.8

> <PUBCHEM_CONFORMER_DIVERSEORDER>
1
77
32
41
25
45
79
39
56
46
75
30
64
55
78
26
12
69
65
57
3
27
8
58
68
44
49
14
60
21
33
70
59
2
48
81
7
76
4
28
62
61
36
35
22
11
31
42
18
29
80
19
74
5
43
15
72
71
20
54
17
6
73
34
13
40
53
16
47
23
37
24
67
52
66
51
50
38
63
10
9

> <PUBCHEM_MMFF94_PARTIAL_CHARGES>
44
1 1.5
10 -0.55
11 0.91
12 -0.01
13 0.1
14 0.55
15 -0.15
16 0.08
17 0.13
18 -0.15
19 0.1
2 -0.65
20 0.08
21 -0.15
22 -0.15
23 -0.15
24 -0.15
25 0.08
26 -0.15
27 -0.15
28 -0.15
29 -0.15
3 -0.65
30 -0.15
31 0.4
32 0.15
33 0.15
34 0.4
35 0.15
36 0.15
37 0.15
38 0.45
39 0.15
4 -0.53
40 0.15
41 0.15
42 0.15
43 0.15
44 0.15
5 -0.17
6 -0.52
7 -0.52
8 -0.55
9 -0.64

> <PUBCHEM_EFFECTIVE_ROTOR_COUNT>
5.2

> <PUBCHEM_PHARMACOPHORE_FEATURES>
14
1 10 donor
1 2 acceptor
1 3 acceptor
1 4 donor
1 5 acceptor
1 6 acceptor
1 6 anion
1 7 acceptor
1 8 donor
1 9 donor
6 1 8 9 12 13 14 rings
6 12 13 15 16 17 18 rings
6 19 20 21 22 23 24 rings
6 25 26 27 28 29 30 rings

> <PUBCHEM_HEAVY_ATOM_COUNT>
30

> <PUBCHEM_ATOM_DEF_STEREO_COUNT>
0

> <PUBCHEM_ATOM_UDEF_STEREO_COUNT>
0

> <PUBCHEM_BOND_DEF_STEREO_COUNT>
0

> <PUBCHEM_BOND_UDEF_STEREO_COUNT>
0

> <PUBCHEM_ISOTOPIC_ATOM_COUNT>
0

> <PUBCHEM_COMPONENT_COUNT>
1

> <PUBCHEM_CACTVS_TAUTO_COUNT>
9

> <PUBCHEM_CONFORMER_ID>
00AC7F9300000001

> <PUBCHEM_MMFF94_ENERGY>
105.0924

> <PUBCHEM_FEATURE_SELFOVERLAP>
71.299

> <PUBCHEM_SHAPE_FINGERPRINT>
10 15 17531249499603421692
10165383 225 18409455813104273052
10319926 262 17312817165766008762
10554248 39 17130702761371782317
11059845 2 14637644798994503804
11112241 14 18270958063112905320
11578080 2 18340769329162698698
12035758 1 17822303404973326681
12236239 1 17275105012076073373
12403259 415 18114743737383983471
12597179 24 18335697282208312938
12616971 3 17631723876965919454
12730499 353 18410296904517297158
13533116 47 18341618062002803590
13631057 29 17842544421397232279
13726171 33 17059491979537620383
13955234 65 18339357453707495142
14461889 52 18261117421407562131
14840074 17 17131838672631074433
15001296 14 15841255047565997328
15131766 46 17987785427770393513
15183329 4 16630527332588995225
15685185 35 17700972404027879480
173720 79 15285642088477354059
17980427 23 17459751608708035254
1979834 28 18260548931326020380
21033648 29 17895471436750852493
21130935 74 18336835204388090851
21521721 280 18342746196073433811
22122407 14 17988095378495704745
22149856 69 18115328695762854545
23522609 53 17131848546992640001
23559900 14 17895767205537265478
23569914 2 17759475016692052309
23845131 108 18340487876357455330
244849 19 17460852022411156630
3178227 256 18338513046442444630
3886686 26 15145699392146627288
44317340 157 18340764828358323093
469060 322 18048594017139167422
495365 180 18410008815380952478
5104073 3 18042401331501872465
6697151 62 17759779473906362702
70251023 43 17772482205214873454

> <PUBCHEM_SHAPE_MULTIPOLES>
566.1
17.42
3.02
1.94
11.34
1.94
0.29
-12.51
1.47
-7.08
0.28
1.44
-0.6
2.41

> <PUBCHEM_SHAPE_SELFOVERLAP>
1242.519

> <PUBCHEM_SHAPE_VOLUME>
304.3

> <PUBCHEM_COORDINATE_TYPE>
2
5
10

$$$$
