11957735
  -OEChem-03232009323D

 52 54  0     0  0  0  0  0  0999 V2000
   -2.2372    3.5235    0.6204 O   0  0  0  0  0  0  0  0  0  0  0  0
    1.5986    0.6745    0.2410 N   0  0  0  0  0  0  0  0  0  0  0  0
    1.9523   -1.4571    0.5671 N   0  0  0  0  0  0  0  0  0  0  0  0
    2.9281    0.6057    0.4071 N   0  0  0  0  0  0  0  0  0  0  0  0
    5.0299   -1.6839   -0.4404 N   0  0  0  0  0  0  0  0  0  0  0  0
   -4.5844   -1.5678   -0.1931 C   0  0  0  0  0  0  0  0  0  0  0  0
   -3.0778   -1.2959   -0.0512 C   0  0  0  0  0  0  0  0  0  0  0  0
   -5.3822   -0.3364    0.2877 C   0  0  0  0  0  0  0  0  0  0  0  0
   -4.9747   -2.7917    0.6638 C   0  0  0  0  0  0  0  0  0  0  0  0
   -5.0324   -1.8643   -1.6423 C   0  0  0  0  0  0  0  0  0  0  0  0
   -2.5808   -1.0230    1.1987 C   0  0  0  0  0  0  0  0  0  0  0  0
   -2.2985   -1.3390   -1.1799 C   0  0  0  0  0  0  0  0  0  0  0  0
   -0.3895   -0.8115    0.2038 C   0  0  0  0  0  0  0  0  0  0  0  0
   -1.2140   -0.7765    1.3282 C   0  0  0  0  0  0  0  0  0  0  0  0
   -0.9317   -1.0927   -1.0503 C   0  0  0  0  0  0  0  0  0  0  0  0
    1.0239   -0.5559    0.3370 C   0  0  0  0  0  0  0  0  0  0  0  0
    3.0913   -0.7048    0.6010 C   0  0  0  0  0  0  0  0  0  0  0  0
    4.4130   -1.2982    0.8351 C   0  0  0  0  0  0  0  0  0  0  0  0
    0.9727    1.8963    0.0036 C   0  0  0  0  0  0  0  0  0  0  0  0
   -0.3329    2.0958    0.4365 C   0  0  0  0  0  0  0  0  0  0  0  0
    1.6614    2.9030   -0.6628 C   0  0  0  0  0  0  0  0  0  0  0  0
    6.3691   -2.2200   -0.2124 C   0  0  0  0  0  0  0  0  0  0  0  0
    4.1933   -2.6618   -1.1307 C   0  0  0  0  0  0  0  0  0  0  0  0
   -0.9587    3.3197    0.1997 C   0  0  0  0  0  0  0  0  0  0  0  0
    1.0357    4.1267   -0.8996 C   0  0  0  0  0  0  0  0  0  0  0  0
   -0.2744    4.3352   -0.4683 C   0  0  0  0  0  0  0  0  0  0  0  0
   -5.2195   -0.1213    1.3495 H   0  0  0  0  0  0  0  0  0  0  0  0
   -5.1009    0.5609   -0.2765 H   0  0  0  0  0  0  0  0  0  0  0  0
   -6.4599   -0.4883    0.1557 H   0  0  0  0  0  0  0  0  0  0  0  0
   -4.8044   -2.6252    1.7330 H   0  0  0  0  0  0  0  0  0  0  0  0
   -6.0376   -3.0333    0.5454 H   0  0  0  0  0  0  0  0  0  0  0  0
   -4.3979   -3.6776    0.3724 H   0  0  0  0  0  0  0  0  0  0  0  0
   -4.5455   -2.7592   -2.0476 H   0  0  0  0  0  0  0  0  0  0  0  0
   -6.1130   -2.0504   -1.6847 H   0  0  0  0  0  0  0  0  0  0  0  0
   -4.8346   -1.0205   -2.3138 H   0  0  0  0  0  0  0  0  0  0  0  0
   -3.2019   -0.9935    2.0872 H   0  0  0  0  0  0  0  0  0  0  0  0
   -2.6655   -1.5515   -2.1758 H   0  0  0  0  0  0  0  0  0  0  0  0
   -0.8056   -0.5755    2.3164 H   0  0  0  0  0  0  0  0  0  0  0  0
   -0.3010   -1.1229   -1.9359 H   0  0  0  0  0  0  0  0  0  0  0  0
    5.0503   -0.5656    1.3471 H   0  0  0  0  0  0  0  0  0  0  0  0
    4.3205   -2.1604    1.5087 H   0  0  0  0  0  0  0  0  0  0  0  0
   -0.8651    1.4340    1.0888 H   0  0  0  0  0  0  0  0  0  0  0  0
    2.6789    2.7664   -1.0196 H   0  0  0  0  0  0  0  0  0  0  0  0
    6.3543   -3.1239    0.4075 H   0  0  0  0  0  0  0  0  0  0  0  0
    7.0048   -1.4751    0.2794 H   0  0  0  0  0  0  0  0  0  0  0  0
    6.8545   -2.4633   -1.1642 H   0  0  0  0  0  0  0  0  0  0  0  0
    3.2715   -2.2173   -1.5193 H   0  0  0  0  0  0  0  0  0  0  0  0
    3.9414   -3.5220   -0.4993 H   0  0  0  0  0  0  0  0  0  0  0  0
    4.7137   -3.0463   -2.0167 H   0  0  0  0  0  0  0  0  0  0  0  0
    1.5673    4.9168   -1.4219 H   0  0  0  0  0  0  0  0  0  0  0  0
   -0.7567    5.2905   -0.6562 H   0  0  0  0  0  0  0  0  0  0  0  0
   -2.5671    2.7123    1.0435 H   0  0  0  0  0  0  0  0  0  0  0  0
  1 24  1  0  0  0  0
  1 52  1  0  0  0  0
  2  4  1  0  0  0  0
  2 16  1  0  0  0  0
  2 19  1  0  0  0  0
  3 16  2  0  0  0  0
  3 17  1  0  0  0  0
  4 17  2  0  0  0  0
  5 18  1  0  0  0  0
  5 22  1  0  0  0  0
  5 23  1  0  0  0  0
  6  7  1  0  0  0  0
  6  8  1  0  0  0  0
  6  9  1  0  0  0  0
  6 10  1  0  0  0  0
  7 11  2  0  0  0  0
  7 12  1  0  0  0  0
  8 27  1  0  0  0  0
  8 28  1  0  0  0  0
  8 29  1  0  0  0  0
  9 30  1  0  0  0  0
  9 31  1  0  0  0  0
  9 32  1  0  0  0  0
 10 33  1  0  0  0  0
 10 34  1  0  0  0  0
 10 35  1  0  0  0  0
 11 14  1  0  0  0  0
 11 36  1  0  0  0  0
 12 15  2  0  0  0  0
 12 37  1  0  0  0  0
 13 14  2  0  0  0  0
 13 15  1  0  0  0  0
 13 16  1  0  0  0  0
 14 38  1  0  0  0  0
 15 39  1  0  0  0  0
 17 18  1  0  0  0  0
 18 40  1  0  0  0  0
 18 41  1  0  0  0  0
 19 20  2  0  0  0  0
 19 21  1  0  0  0  0
 20 24  1  0  0  0  0
 20 42  1  0  0  0  0
 21 25  2  0  0  0  0
 21 43  1  0  0  0  0
 22 44  1  0  0  0  0
 22 45  1  0  0  0  0
 22 46  1  0  0  0  0
 23 47  1  0  0  0  0
 23 48  1  0  0  0  0
 23 49  1  0  0  0  0
 24 26  2  0  0  0  0
 25 26  1  0  0  0  0
 25 50  1  0  0  0  0
 26 51  1  0  0  0  0
M  END
> <PUBCHEM_COMPOUND_CID>
11957735

> <PUBCHEM_CONFORMER_RMSD>
0.8

> <PUBCHEM_CONFORMER_DIVERSEORDER>
3
27
9
37
18
41
19
28
40
34
15
11
25
8
20
10
36
39
29
4
26
21
1
31
38
2
22
7
6
35
13
32
14
23
5
12
16
30
17
24
33

> <PUBCHEM_MMFF94_PARTIAL_CHARGES>
32
1 -0.53
11 -0.15
12 -0.15
13 0.05
14 -0.15
15 -0.15
16 0.13
17 0.34
18 0.45
19 -0.02
2 0.59
20 -0.15
21 -0.15
22 0.27
23 0.27
24 0.08
25 -0.15
26 -0.15
3 -0.57
36 0.15
37 0.15
38 0.15
39 0.15
4 -0.71
42 0.15
43 0.15
5 -0.81
50 0.15
51 0.15
52 0.45
6 0.14
7 -0.14

> <PUBCHEM_EFFECTIVE_ROTOR_COUNT>
5

> <PUBCHEM_PHARMACOPHORE_FEATURES>
8
1 1 donor
1 5 cation
3 2 3 16 cation
3 3 4 17 cation
4 6 8 9 10 hydrophobe
5 2 3 4 16 17 rings
6 19 20 21 24 25 26 rings
6 7 11 12 13 14 15 rings

> <PUBCHEM_HEAVY_ATOM_COUNT>
26

> <PUBCHEM_ATOM_DEF_STEREO_COUNT>
0

> <PUBCHEM_ATOM_UDEF_STEREO_COUNT>
0

> <PUBCHEM_BOND_DEF_STEREO_COUNT>
0

> <PUBCHEM_BOND_UDEF_STEREO_COUNT>
0

> <PUBCHEM_ISOTOPIC_ATOM_COUNT>
0

> <PUBCHEM_COMPONENT_COUNT>
1

> <PUBCHEM_CACTVS_TAUTO_COUNT>
3

> <PUBCHEM_CONFORMER_ID>
00B675E700000003

> <PUBCHEM_MMFF94_ENERGY>
96.3442

> <PUBCHEM_FEATURE_SELFOVERLAP>
43.343

> <PUBCHEM_SHAPE_FINGERPRINT>
10165383 225 17320144542797159645
10411042 1 18409450288826861434
10815517 723 18198632025657153969
1100329 8 18336546015423477449
11265709 11 18409166597546558968
11578080 2 17702641290868822792
12107183 9 18340496599640924299
12156800 1 17982480142469046453
12160290 23 17765401311059994544
12166972 35 18130221670533439387
12236239 1 17846497062392965875
12422481 6 17846226501259995791
12516196 113 18408039637105106226
12730499 353 17613161080569581099
12788726 201 18116146667082107922
13004483 165 18339067238265888010
13009979 54 18130802178165155859
13134695 92 18337105791057839837
13140716 1 18338510846664828456
13540713 4 18057587786937801130
13590594 115 18335988597155643153
13757389 114 17906188252328730364
138480 1 14879464475478259201
13899415 180 18411411817328279446
13911987 19 18041859397403997862
14114211 68 17464840230173584693
14114211 80 16747927974624091613
14117953 113 18196095444132499077
14508225 48 18408601444470398940
14556957 393 18043273300637094902
14713325 29 18196651783365750198
14866123 147 18122060901562912371
15042514 8 18194682566646175112
15081414 286 18337668745121930304
15420108 30 17478307087540585784
16087824 20 18120654631314914845
17357779 13 18270102540192755364
17492 89 18122907788005741923
17539 30 18265891354892668908
1813 80 18343312461261566206
18393751 57 17981580961929006352
19591789 44 17185032761450778400
21041028 32 18410289229067932125
21478907 32 18337950074138012914
21641784 216 18189070741398232044
21703447 108 18337939118510099154
22033318 11 18054265161498547347
23175994 123 18334012813272498475
23536364 44 18188476970131603951
23559900 14 18264201586115392083
24771750 20 17466521417886000220
249057 3 18411975872069652919
255183 451 18341055236920328703
283562 15 18262235504916953146
3103668 31 18117555129157292325
4144715 1 18262524818467448443
474 4 17831852822168466817
513202 73 18196099832966628694
5969126 39 18339357471076768446
7164475 11 18337395933689854742
7399639 24 18200576052709776218
7471813 234 18341324599956862773
9925002 15 18117296769625970900
9971528 1 18341042020930775762

> <PUBCHEM_SHAPE_MULTIPOLES>
509.27
10.79
5.11
1.17
1.53
7.57
-0.17
-14.2
-1.14
1.53
-1.05
-0.56
-0.41
-0.25

> <PUBCHEM_SHAPE_SELFOVERLAP>
1098.69

> <PUBCHEM_SHAPE_VOLUME>
285.4

> <PUBCHEM_COORDINATE_TYPE>
2
5
10

$$$$
