46885027
  -OEChem-03232009323D

 70 73  0     1  0  0  0  0  0999 V2000
   10.2635   -2.6021   -1.5309 F   0  0  0  0  0  0  0  0  0  0  0  0
    8.4747   -1.9659   -2.5910 F   0  0  0  0  0  0  0  0  0  0  0  0
    9.8895   -0.4874   -1.8724 F   0  0  0  0  0  0  0  0  0  0  0  0
    3.8601    1.7160   -1.4235 O   0  0  0  0  0  0  0  0  0  0  0  0
   -8.5057   -0.4831    2.3616 O   0  0  0  0  0  0  0  0  0  0  0  0
    4.8373    0.1098    2.1616 O   0  0  0  0  0  0  0  0  0  0  0  0
   -0.9305    1.8286   -0.5874 N   0  0  2  0  0  0  0  0  0  0  0  0
   -4.2414    0.1656   -0.1592 N   0  0  0  0  0  0  0  0  0  0  0  0
    2.4568    2.7603    0.1084 N   0  0  0  0  0  0  0  0  0  0  0  0
   -6.8091   -0.7010    0.7680 N   0  0  0  0  0  0  0  0  0  0  0  0
    5.7754    1.5060    0.5635 N   0  0  0  0  0  0  0  0  0  0  0  0
    1.2390    2.6777   -0.6505 C   0  0  1  0  0  0  0  0  0  0  0  0
    0.4497    1.4096   -0.3410 C   0  0  0  0  0  0  0  0  0  0  0  0
    0.2718    3.8251   -0.3502 C   0  0  0  0  0  0  0  0  0  0  0  0
   -1.0388    3.1486    0.0344 C   0  0  0  0  0  0  0  0  0  0  0  0
   -1.9008    0.8833   -0.0549 C   0  0  0  0  0  0  0  0  0  0  0  0
   -3.2707    1.1267   -0.6810 C   0  0  0  0  0  0  0  0  0  0  0  0
   -4.7484    0.6028    1.1496 C   0  0  0  0  0  0  0  0  0  0  0  0
   -5.3511   -0.0133   -1.1064 C   0  0  0  0  0  0  0  0  0  0  0  0
   -6.3598   -1.0402   -0.5868 C   0  0  0  0  0  0  0  0  0  0  0  0
   -5.7325   -0.4199    1.7150 C   0  0  0  0  0  0  0  0  0  0  0  0
    3.6789    2.2693   -0.3419 C   0  0  0  0  0  0  0  0  0  0  0  0
   -8.1345   -0.7028    1.2095 C   0  0  0  0  0  0  0  0  0  0  0  0
    4.7936    2.5467    0.6441 C   0  0  0  0  0  0  0  0  0  0  0  0
   -9.1907   -0.9975    0.2321 C   0  0  0  0  0  0  0  0  0  0  0  0
   -9.6044   -2.3137    0.0271 C   0  0  0  0  0  0  0  0  0  0  0  0
   -9.7809    0.0395   -0.4902 C   0  0  0  0  0  0  0  0  0  0  0  0
    5.7182    0.3522    1.3409 C   0  0  0  0  0  0  0  0  0  0  0  0
  -10.6085   -2.5929   -0.9001 C   0  0  0  0  0  0  0  0  0  0  0  0
  -10.7849   -0.2396   -1.4173 C   0  0  0  0  0  0  0  0  0  0  0  0
  -11.1987   -1.5559   -1.6223 C   0  0  0  0  0  0  0  0  0  0  0  0
    6.8270   -0.6194    1.1579 C   0  0  0  0  0  0  0  0  0  0  0  0
    7.5080   -0.6806   -0.0578 C   0  0  0  0  0  0  0  0  0  0  0  0
    7.1867   -1.4710    2.2025 C   0  0  0  0  0  0  0  0  0  0  0  0
    8.5486   -1.5935   -0.2291 C   0  0  0  0  0  0  0  0  0  0  0  0
    8.2273   -2.3838    2.0313 C   0  0  0  0  0  0  0  0  0  0  0  0
    8.9083   -2.4451    0.8154 C   0  0  0  0  0  0  0  0  0  0  0  0
    9.2770   -1.6589   -1.5290 C   0  0  0  0  0  0  0  0  0  0  0  0
    1.4926    2.6992   -1.7185 H   0  0  0  0  0  0  0  0  0  0  0  0
    0.7507    0.5827   -0.9931 H   0  0  0  0  0  0  0  0  0  0  0  0
    0.5974    1.0971    0.7018 H   0  0  0  0  0  0  0  0  0  0  0  0
    0.1337    4.4307   -1.2544 H   0  0  0  0  0  0  0  0  0  0  0  0
    0.6197    4.4931    0.4451 H   0  0  0  0  0  0  0  0  0  0  0  0
   -1.8965    3.7195   -0.3342 H   0  0  0  0  0  0  0  0  0  0  0  0
   -1.1075    3.0825    1.1279 H   0  0  0  0  0  0  0  0  0  0  0  0
   -1.5918   -0.1377   -0.3187 H   0  0  0  0  0  0  0  0  0  0  0  0
   -1.9271    0.9245    1.0403 H   0  0  0  0  0  0  0  0  0  0  0  0
   -3.6182    2.1567   -0.5317 H   0  0  0  0  0  0  0  0  0  0  0  0
   -3.1594    0.9937   -1.7662 H   0  0  0  0  0  0  0  0  0  0  0  0
   -3.9335    0.7148    1.8722 H   0  0  0  0  0  0  0  0  0  0  0  0
   -5.2480    1.5773    1.0649 H   0  0  0  0  0  0  0  0  0  0  0  0
   -5.8614    0.9428   -1.2846 H   0  0  0  0  0  0  0  0  0  0  0  0
   -4.9708   -0.3698   -2.0713 H   0  0  0  0  0  0  0  0  0  0  0  0
    2.4039    3.1592    1.0413 H   0  0  0  0  0  0  0  0  0  0  0  0
   -5.2247   -1.3707    1.9188 H   0  0  0  0  0  0  0  0  0  0  0  0
   -6.1392   -0.0570    2.6646 H   0  0  0  0  0  0  0  0  0  0  0  0
   -7.1963   -1.1124   -1.2852 H   0  0  0  0  0  0  0  0  0  0  0  0
   -5.8976   -2.0334   -0.5294 H   0  0  0  0  0  0  0  0  0  0  0  0
    5.2701    3.4949    0.3780 H   0  0  0  0  0  0  0  0  0  0  0  0
    4.4113    2.6114    1.6675 H   0  0  0  0  0  0  0  0  0  0  0  0
    6.5613    1.6705   -0.0562 H   0  0  0  0  0  0  0  0  0  0  0  0
   -9.1508   -3.1293    0.5843 H   0  0  0  0  0  0  0  0  0  0  0  0
   -9.4655    1.0686   -0.3386 H   0  0  0  0  0  0  0  0  0  0  0  0
  -10.9304   -3.6178   -1.0599 H   0  0  0  0  0  0  0  0  0  0  0  0
  -11.2444    0.5679   -1.9798 H   0  0  0  0  0  0  0  0  0  0  0  0
  -11.9803   -1.7732   -2.3444 H   0  0  0  0  0  0  0  0  0  0  0  0
    7.2321   -0.0534   -0.9010 H   0  0  0  0  0  0  0  0  0  0  0  0
    6.6714   -1.4356    3.1588 H   0  0  0  0  0  0  0  0  0  0  0  0
    8.5081   -3.0462    2.8449 H   0  0  0  0  0  0  0  0  0  0  0  0
    9.7159   -3.1631    0.7027 H   0  0  0  0  0  0  0  0  0  0  0  0
  1 38  1  0  0  0  0
  2 38  1  0  0  0  0
  3 38  1  0  0  0  0
  4 22  2  0  0  0  0
  5 23  2  0  0  0  0
  6 28  2  0  0  0  0
  7 13  1  0  0  0  0
  7 15  1  0  0  0  0
  7 16  1  0  0  0  0
  8 17  1  0  0  0  0
  8 18  1  0  0  0  0
  8 19  1  0  0  0  0
  9 12  1  0  0  0  0
  9 22  1  0  0  0  0
  9 54  1  0  0  0  0
 10 20  1  0  0  0  0
 10 21  1  0  0  0  0
 10 23  1  0  0  0  0
 11 24  1  0  0  0  0
 11 28  1  0  0  0  0
 11 61  1  0  0  0  0
 12 13  1  0  0  0  0
 12 14  1  0  0  0  0
 12 39  1  0  0  0  0
 13 40  1  0  0  0  0
 13 41  1  0  0  0  0
 14 15  1  0  0  0  0
 14 42  1  0  0  0  0
 14 43  1  0  0  0  0
 15 44  1  0  0  0  0
 15 45  1  0  0  0  0
 16 17  1  0  0  0  0
 16 46  1  0  0  0  0
 16 47  1  0  0  0  0
 17 48  1  0  0  0  0
 17 49  1  0  0  0  0
 18 21  1  0  0  0  0
 18 50  1  0  0  0  0
 18 51  1  0  0  0  0
 19 20  1  0  0  0  0
 19 52  1  0  0  0  0
 19 53  1  0  0  0  0
 20 57  1  0  0  0  0
 20 58  1  0  0  0  0
 21 55  1  0  0  0  0
 21 56  1  0  0  0  0
 22 24  1  0  0  0  0
 23 25  1  0  0  0  0
 24 59  1  0  0  0  0
 24 60  1  0  0  0  0
 25 26  2  0  0  0  0
 25 27  1  0  0  0  0
 26 29  1  0  0  0  0
 26 62  1  0  0  0  0
 27 30  2  0  0  0  0
 27 63  1  0  0  0  0
 28 32  1  0  0  0  0
 29 31  2  0  0  0  0
 29 64  1  0  0  0  0
 30 31  1  0  0  0  0
 30 65  1  0  0  0  0
 31 66  1  0  0  0  0
 32 33  2  0  0  0  0
 32 34  1  0  0  0  0
 33 35  1  0  0  0  0
 33 67  1  0  0  0  0
 34 36  2  0  0  0  0
 34 68  1  0  0  0  0
 35 37  2  0  0  0  0
 35 38  1  0  0  0  0
 36 37  1  0  0  0  0
 36 69  1  0  0  0  0
 37 70  1  0  0  0  0
M  END
> <PUBCHEM_COMPOUND_CID>
46885027

> <PUBCHEM_CONFORMER_RMSD>
1.6

> <PUBCHEM_CONFORMER_DIVERSEORDER>
1
96
100
6
49
77
21
67
29
98
88
47
19
40
76
90
99
73
84
32
30
35
13
101
23
59
5
50
60
93
36
81
34
80
54
65
97
15
44
87
26
37
94
66
10
74
11
75
17
83
2
52
41
7
62
91
70
48
56
89
82
57
14
95
92
28
25
61
18
46
42
16
72
12
39
86
51
45
8
69
4
79
53
20
43
64
71
58
3
55
38
22
68
78
33
63
85
27
31
9
24

> <PUBCHEM_MMFF94_PARTIAL_CHARGES>
48
1 -0.34
10 -0.66
11 -0.73
12 0.3
13 0.27
15 0.27
16 0.27
17 0.27
18 0.27
19 0.27
2 -0.34
20 0.3
21 0.3
22 0.57
23 0.54
24 0.36
25 0.09
26 -0.15
27 -0.15
28 0.54
29 -0.15
3 -0.34
30 -0.15
31 -0.15
32 0.09
33 -0.15
34 -0.15
35 -0.14
36 -0.15
37 -0.15
38 1.16
4 -0.57
5 -0.57
54 0.37
6 -0.57
61 0.37
62 0.15
63 0.15
64 0.15
65 0.15
66 0.15
67 0.15
68 0.15
69 0.15
7 -0.81
70 0.15
8 -0.81
9 -0.73

> <PUBCHEM_EFFECTIVE_ROTOR_COUNT>
14.2

> <PUBCHEM_PHARMACOPHORE_FEATURES>
11
1 11 donor
1 4 acceptor
1 5 acceptor
1 6 acceptor
1 7 cation
1 8 cation
1 9 donor
5 7 12 13 14 15 rings
6 25 26 27 29 30 31 rings
6 32 33 34 35 36 37 rings
6 8 10 18 19 20 21 rings

> <PUBCHEM_HEAVY_ATOM_COUNT>
38

> <PUBCHEM_ATOM_DEF_STEREO_COUNT>
1

> <PUBCHEM_ATOM_UDEF_STEREO_COUNT>
0

> <PUBCHEM_BOND_DEF_STEREO_COUNT>
0

> <PUBCHEM_BOND_UDEF_STEREO_COUNT>
0

> <PUBCHEM_ISOTOPIC_ATOM_COUNT>
0

> <PUBCHEM_COMPONENT_COUNT>
1

> <PUBCHEM_CACTVS_TAUTO_COUNT>
4

> <PUBCHEM_CONFORMER_ID>
02CB68A300000001

> <PUBCHEM_MMFF94_ENERGY>
84.1576

> <PUBCHEM_FEATURE_SELFOVERLAP>
55.822

> <PUBCHEM_SHAPE_FINGERPRINT>
10029044 110 8574712403448928087
10209105 3 18261103041999083353
10533779 47 15841279156087536606
10930396 42 15267340726523980905
11374522 81 18260541222502808415
11408170 108 17846780684900232879
11478447 183 16370723721096790319
11534866 41 17703796890828451798
11966995 16 17022893549680479714
12013929 2 18114172052928474045
12539745 222 18059858329625581601
12559415 86 17821725028314971861
12728208 25 18340485664084632801
13008946 119 11455890265545033357
13530399 1 7853309648439737671
13627175 4 18411135852947317566
13692115 27 18410855418081725212
14040221 8 16732980891163811605
14117953 113 18335422378278442138
14202775 3 18115025342592594547
14400156 188 18343582920316900082
14617042 71 9943810006179632787
15684393 108 17676488346472924286
17686467 74 13542470900052563531
17852330 31 15123790678386793444
1818759 1 18334299759947620232
19841028 212 18336262426984864208
20105231 36 18341896256384291870
20156587 128 14707474855167175976
2026 5 18334007277112596611
20501277 180 11169912796986555494
20982279 24 17894923905729757915
21102433 48 17916861444192126327
21792965 169 17749116582002050117
22019808 53 18261103033667663695
25242607 90 18341885316316345880
3146122 72 12901556762463645070
406291 66 18334853897008043000
4353968 344 18409726241451789909
437795 160 15841550830244328653
4403749 210 11095875008657147781
45270241 37 10737549610176265953
474113 269 18408600375297933305
57303763 176 18340484467013343149
57828716 57 17416418568033448430
6201320 215 18342740673379286737
6204607 403 9223237381827024307

> <PUBCHEM_SHAPE_MULTIPOLES>
717.69
49.3
3.6
1.94
29.54
2.06
-0.08
-51.07
11.09
-5.29
0.42
-2.56
-1.19
-0.03

> <PUBCHEM_SHAPE_SELFOVERLAP>
1518.981

> <PUBCHEM_SHAPE_VOLUME>
401.8

> <PUBCHEM_COORDINATE_TYPE>
2
5
10

$$$$
