46934428
  -OEChem-03232009323D

 59 62  0     1  0  0  0  0  0999 V2000
   -2.6912    1.9599    0.1890 S   0  0  0  0  0  0  0  0  0  0  0  0
   -2.9104    2.6685   -1.0589 O   0  0  0  0  0  0  0  0  0  0  0  0
   -3.6351    2.1321    1.2784 O   0  0  0  0  0  0  0  0  0  0  0  0
    3.1209    0.0354   -0.2837 N   0  0  0  0  0  0  0  0  0  0  0  0
    5.2025   -1.8409    0.2698 N   0  0  0  0  0  0  0  0  0  0  0  0
   -1.0753    2.2612    0.7668 N   0  0  1  0  0  0  0  0  0  0  0  0
    4.4620    0.2413   -0.8393 C   0  0  0  0  0  0  0  0  0  0  0  0
    2.7879   -1.3487    0.0760 C   0  0  0  0  0  0  0  0  0  0  0  0
    3.8979   -1.9627    0.9322 C   0  0  0  0  0  0  0  0  0  0  0  0
    5.5184   -0.4249    0.0457 C   0  0  0  0  0  0  0  0  0  0  0  0
    2.0758    0.8867   -0.6592 C   0  0  0  0  0  0  0  0  0  0  0  0
   -0.0081    1.9954   -0.1439 C   0  0  0  0  0  0  0  0  0  0  0  0
   -0.9074    3.4301    1.6859 C   0  0  0  0  0  0  0  0  0  0  0  0
    1.0333    1.1464    0.2305 C   0  0  0  0  0  0  0  0  0  0  0  0
    6.2463   -2.4789    1.0711 C   0  0  0  0  0  0  0  0  0  0  0  0
    2.0767    1.4760   -1.9236 C   0  0  0  0  0  0  0  0  0  0  0  0
   -0.0072    2.5847   -1.4083 C   0  0  0  0  0  0  0  0  0  0  0  0
   -2.6562    0.2303   -0.1974 C   0  0  0  0  0  0  0  0  0  0  0  0
    1.0352    2.3248   -2.2982 C   0  0  0  0  0  0  0  0  0  0  0  0
    0.3118    3.1944    2.5653 C   0  0  0  0  0  0  0  0  0  0  0  0
   -0.7678    4.6992    0.8577 C   0  0  0  0  0  0  0  0  0  0  0  0
   -2.5807   -0.7119    0.8288 C   0  0  0  0  0  0  0  0  0  0  0  0
   -2.7045   -0.1869   -1.5243 C   0  0  0  0  0  0  0  0  0  0  0  0
   -2.5522   -2.0859    0.5393 C   0  0  0  0  0  0  0  0  0  0  0  0
   -2.6013   -2.5101   -0.8099 C   0  0  0  0  0  0  0  0  0  0  0  0
   -2.6772   -1.5478   -1.8301 C   0  0  0  0  0  0  0  0  0  0  0  0
   -2.4761   -3.0482    1.5595 C   0  0  0  0  0  0  0  0  0  0  0  0
   -2.5726   -3.8841   -1.0994 C   0  0  0  0  0  0  0  0  0  0  0  0
   -2.4487   -4.4091    1.2537 C   0  0  0  0  0  0  0  0  0  0  0  0
   -2.4968   -4.8263   -0.0732 C   0  0  0  0  0  0  0  0  0  0  0  0
    2.6505   -1.9357   -0.8414 H   0  0  0  0  0  0  0  0  0  0  0  0
    4.5150   -0.1775   -1.8525 H   0  0  0  0  0  0  0  0  0  0  0  0
    4.6969    1.3113   -0.9007 H   0  0  0  0  0  0  0  0  0  0  0  0
    1.8500   -1.4093    0.6399 H   0  0  0  0  0  0  0  0  0  0  0  0
    3.6584   -3.0204    1.0963 H   0  0  0  0  0  0  0  0  0  0  0  0
    3.9149   -1.4747    1.9161 H   0  0  0  0  0  0  0  0  0  0  0  0
    5.5879    0.1124    1.0013 H   0  0  0  0  0  0  0  0  0  0  0  0
    6.4911   -0.3313   -0.4523 H   0  0  0  0  0  0  0  0  0  0  0  0
   -1.7833    3.5076    2.3389 H   0  0  0  0  0  0  0  0  0  0  0  0
    1.0279    0.6899    1.2176 H   0  0  0  0  0  0  0  0  0  0  0  0
    7.2134   -2.4195    0.5596 H   0  0  0  0  0  0  0  0  0  0  0  0
    6.3505   -2.0187    2.0604 H   0  0  0  0  0  0  0  0  0  0  0  0
    6.0286   -3.5440    1.2075 H   0  0  0  0  0  0  0  0  0  0  0  0
    2.8653    1.2873   -2.6463 H   0  0  0  0  0  0  0  0  0  0  0  0
   -0.7668    3.2884   -1.7278 H   0  0  0  0  0  0  0  0  0  0  0  0
    0.3611    3.9625    3.3456 H   0  0  0  0  0  0  0  0  0  0  0  0
    0.2597    2.2216    3.0661 H   0  0  0  0  0  0  0  0  0  0  0  0
    1.2547    3.2507    2.0120 H   0  0  0  0  0  0  0  0  0  0  0  0
   -0.7732    5.5727    1.5201 H   0  0  0  0  0  0  0  0  0  0  0  0
   -1.5978    4.8236    0.1554 H   0  0  0  0  0  0  0  0  0  0  0  0
    0.1714    4.7422    0.2971 H   0  0  0  0  0  0  0  0  0  0  0  0
    1.0400    2.7897   -3.2797 H   0  0  0  0  0  0  0  0  0  0  0  0
   -2.5393   -0.3776    1.8639 H   0  0  0  0  0  0  0  0  0  0  0  0
   -2.7603    0.5245   -2.3429 H   0  0  0  0  0  0  0  0  0  0  0  0
   -2.7148   -1.8514   -2.8743 H   0  0  0  0  0  0  0  0  0  0  0  0
   -2.4372   -2.7450    2.6037 H   0  0  0  0  0  0  0  0  0  0  0  0
   -2.6091   -4.2329   -2.1294 H   0  0  0  0  0  0  0  0  0  0  0  0
   -2.3896   -5.1431    2.0520 H   0  0  0  0  0  0  0  0  0  0  0  0
   -2.4753   -5.8859   -0.3106 H   0  0  0  0  0  0  0  0  0  0  0  0
  1  2  2  0  0  0  0
  1  3  2  0  0  0  0
  1  6  1  0  0  0  0
  1 18  1  0  0  0  0
  4  7  1  0  0  0  0
  4  8  1  0  0  0  0
  4 11  1  0  0  0  0
  5  9  1  0  0  0  0
  5 10  1  0  0  0  0
  5 15  1  0  0  0  0
  6 12  1  0  0  0  0
  6 13  1  0  0  0  0
  7 10  1  0  0  0  0
  7 32  1  0  0  0  0
  7 33  1  0  0  0  0
  8  9  1  0  0  0  0
  8 31  1  0  0  0  0
  8 34  1  0  0  0  0
  9 35  1  0  0  0  0
  9 36  1  0  0  0  0
 10 37  1  0  0  0  0
 10 38  1  0  0  0  0
 11 14  2  0  0  0  0
 11 16  1  0  0  0  0
 12 14  1  0  0  0  0
 12 17  2  0  0  0  0
 13 20  1  0  0  0  0
 13 21  1  0  0  0  0
 13 39  1  0  0  0  0
 14 40  1  0  0  0  0
 15 41  1  0  0  0  0
 15 42  1  0  0  0  0
 15 43  1  0  0  0  0
 16 19  2  0  0  0  0
 16 44  1  0  0  0  0
 17 19  1  0  0  0  0
 17 45  1  0  0  0  0
 18 22  2  0  0  0  0
 18 23  1  0  0  0  0
 19 52  1  0  0  0  0
 20 46  1  0  0  0  0
 20 47  1  0  0  0  0
 20 48  1  0  0  0  0
 21 49  1  0  0  0  0
 21 50  1  0  0  0  0
 21 51  1  0  0  0  0
 22 24  1  0  0  0  0
 22 53  1  0  0  0  0
 23 26  2  0  0  0  0
 23 54  1  0  0  0  0
 24 25  1  0  0  0  0
 24 27  2  0  0  0  0
 25 26  1  0  0  0  0
 25 28  2  0  0  0  0
 26 55  1  0  0  0  0
 27 29  1  0  0  0  0
 27 56  1  0  0  0  0
 28 30  1  0  0  0  0
 28 57  1  0  0  0  0
 29 30  2  0  0  0  0
 29 58  1  0  0  0  0
 30 59  1  0  0  0  0
M  END
> <PUBCHEM_COMPOUND_CID>
46934428

> <PUBCHEM_CONFORMER_RMSD>
0.8

> <PUBCHEM_CONFORMER_DIVERSEORDER>
3
225
254
217
78
106
158
210
11
246
278
271
251
231
123
53
331
60
131
198
160
295
140
320
289
28
292
322
150
344
281
332
240
77
207
174
50
276
65
298
136
49
181
127
339
285
333
255
321
51
58
286
172
191
81
20
272
88
179
67
242
153
287
157
16
147
112
338
117
318
63
163
1
308
14
144
164
197
143
113
208
336
249
86
312
130
13
156
294
36
48
29
155
149
21
248
194
244
41
263
69
260
115
129
92
32
184
186
313
68
328
128
222
73
290
111
303
256
273
79
108
233
90
341
235
262
57
47
317
209
296
293
138
279
234
283
340
213
315
201
274
190
104
124
195
178
134
37
22
55
236
46
342
176
327
261
27
282
275
228
5
335
116
297
214
66
329
319
72
192
43
301
54
324
280
59
206
169
62
137
241
91
139
323
218
345
114
135
24
85
230
167
187
10
161
216
52
98
304
343
133
109
299
146
118
100
177
330
119
175
219
19
75
193
239
45
264
103
102
267
258
309
141
250
64
247
300
270
310
8
334
40
166
232
253
183
170
126
148
204
42
34
316
229
305
257
82
215
26
71
212
277
101
97
245
266
23
39
173
9
243
188
268
18
132
203
142
171
31
306
154
211
12
95
205
145
325
220
105
121
89
168
221
291
70
180
80
33
314
96
185
15
94
99
84
224
30
238
326
223
227
288
35
152
25
165
56
311
259
151
17
74
2
110
337
4
189
125
302
107
226
182
83
61
202
284
120
265
269
87
199
307
252
196
159
44
162
6
237
93
7
38
122
200
76

> <PUBCHEM_MMFF94_PARTIAL_CHARGES>
37
1 1.45
10 0.27
11 0.1
12 0.2
13 0.36
14 -0.15
15 0.27
16 -0.15
17 -0.15
18 -0.01
19 -0.15
2 -0.65
22 -0.15
23 -0.15
26 -0.15
27 -0.15
28 -0.15
29 -0.15
3 -0.65
30 -0.15
4 -0.84
40 0.15
44 0.15
45 0.15
5 -0.81
52 0.15
53 0.15
54 0.15
55 0.15
56 0.15
57 0.15
58 0.15
59 0.15
6 -0.69
7 0.37
8 0.37
9 0.27

> <PUBCHEM_EFFECTIVE_ROTOR_COUNT>
6.2

> <PUBCHEM_PHARMACOPHORE_FEATURES>
9
1 2 acceptor
1 3 acceptor
1 4 cation
1 5 cation
3 13 20 21 hydrophobe
6 11 12 14 16 17 19 rings
6 18 22 23 24 25 26 rings
6 24 25 27 28 29 30 rings
6 4 5 7 8 9 10 rings

> <PUBCHEM_HEAVY_ATOM_COUNT>
30

> <PUBCHEM_ATOM_DEF_STEREO_COUNT>
0

> <PUBCHEM_ATOM_UDEF_STEREO_COUNT>
0

> <PUBCHEM_BOND_DEF_STEREO_COUNT>
0

> <PUBCHEM_BOND_UDEF_STEREO_COUNT>
0

> <PUBCHEM_ISOTOPIC_ATOM_COUNT>
0

> <PUBCHEM_COMPONENT_COUNT>
1

> <PUBCHEM_CACTVS_TAUTO_COUNT>
1

> <PUBCHEM_CONFORMER_ID>
02CC299C00000003

> <PUBCHEM_MMFF94_ENERGY>
101.3205

> <PUBCHEM_FEATURE_SELFOVERLAP>
45.719

> <PUBCHEM_SHAPE_FINGERPRINT>
10928967 22 17690578784591897342
11014199 57 18261958569335909390
114674 6 16971402621424825707
11513181 2 17841143359931266974
11552529 35 18340481176197086034
12156800 1 15473312106084090525
12788726 201 18198898128322835336
12969540 37 17905881831669702500
13009979 54 18337684091429930124
13631057 29 18265904746964591028
14020679 6 17273134583601345632
14028597 1 17556296160374591801
14114207 22 17466210947547819631
14251757 5 18339075995577812042
14659021 117 18265310915790200850
14844126 61 18412260606077014154
14863182 85 16824462801068187885
14866123 147 18411140234531780259
15439362 3 16891161886544676109
15484559 13 14858882906628681732
16112460 7 17547568181090940186
16120349 306 17761489192953864050
16728300 4 18115325396890498163
19315092 285 17125084587286760371
20764821 26 16392123867911097734
20775438 99 17260141973035556551
20775530 9 18117556447137134594
21133410 38 15602890058050774034
22956985 138 17909258427911040448
229767 44 18119812404790301570
23559900 14 17610325409769245863
23728640 28 18340772529234554755
3380486 77 18269015114967986377
3383291 50 18340767044757224083
3737641 26 17686359949964722543
4017518 198 17979912705572354126
4616759 239 18270098151569746434
463206 1 18337957908100617971
5080951 261 16808111538966415476
57527452 28 18265052419194719017
70251023 43 17975972378073718779

> <PUBCHEM_SHAPE_MULTIPOLES>
594.55
9.07
6.69
1.97
14.32
0.79
0.06
10.98
-0.73
-4.61
-2.58
-0.33
-1.18
-1.38

> <PUBCHEM_SHAPE_SELFOVERLAP>
1263.445

> <PUBCHEM_SHAPE_VOLUME>
333.5

> <PUBCHEM_COORDINATE_TYPE>
2
5
10

$$$$
