19770958
  -OEChem-03232009323D

 40 43  0     1  0  0  0  0  0999 V2000
   -0.5213    0.5371    0.2030 O   0  0  0  0  0  0  0  0  0  0  0  0
    0.4363   -1.5562    0.2106 O   0  0  0  0  0  0  0  0  0  0  0  0
   -4.4896    0.7082   -0.5495 N   0  0  0  0  0  0  0  0  0  0  0  0
    3.9827    0.8738   -0.0760 N   0  0  0  0  0  0  0  0  0  0  0  0
    3.3438    2.0751   -0.0761 N   0  0  0  0  0  0  0  0  0  0  0  0
   -4.2276    0.5798    0.8966 C   0  0  1  0  0  0  0  0  0  0  0  0
   -3.9056   -0.5311   -1.0967 C   0  0  2  0  0  0  0  0  0  0  0  0
   -4.5443   -0.8857    1.2148 C   0  0  0  0  0  0  0  0  0  0  0  0
   -4.3304   -1.6235   -0.1092 C   0  0  0  0  0  0  0  0  0  0  0  0
   -2.7332    0.9014    1.0959 C   0  0  0  0  0  0  0  0  0  0  0  0
   -2.3781   -0.3238   -1.1025 C   0  0  0  0  0  0  0  0  0  0  0  0
   -1.8182   -0.0393    0.2992 C   0  0  0  0  0  0  0  0  0  0  0  0
   -5.9109    0.8475   -0.8567 C   0  0  0  0  0  0  0  0  0  0  0  0
    0.5203   -0.3387    0.1675 C   0  0  0  0  0  0  0  0  0  0  0  0
    1.8126    0.3855    0.0683 C   0  0  0  0  0  0  0  0  0  0  0  0
    3.0638   -0.1775    0.0116 C   0  0  0  0  0  0  0  0  0  0  0  0
    2.0491    1.7672    0.0111 C   0  0  0  0  0  0  0  0  0  0  0  0
    3.5656   -1.5092    0.0239 C   0  0  0  0  0  0  0  0  0  0  0  0
    5.3612    0.6433   -0.1500 C   0  0  0  0  0  0  0  0  0  0  0  0
    4.8932   -1.7194   -0.0478 C   0  0  0  0  0  0  0  0  0  0  0  0
    5.8306   -0.6142   -0.1379 C   0  0  0  0  0  0  0  0  0  0  0  0
   -4.8248    1.2719    1.5007 H   0  0  0  0  0  0  0  0  0  0  0  0
   -4.2403   -0.7449   -2.1179 H   0  0  0  0  0  0  0  0  0  0  0  0
   -5.5892   -0.9956    1.5285 H   0  0  0  0  0  0  0  0  0  0  0  0
   -3.9170   -1.2916    2.0151 H   0  0  0  0  0  0  0  0  0  0  0  0
   -3.5879   -2.4228   -0.0159 H   0  0  0  0  0  0  0  0  0  0  0  0
   -5.2731   -2.0855   -0.4258 H   0  0  0  0  0  0  0  0  0  0  0  0
   -2.5376    1.9420    0.8025 H   0  0  0  0  0  0  0  0  0  0  0  0
   -2.4714    0.8427    2.1600 H   0  0  0  0  0  0  0  0  0  0  0  0
   -1.8812   -1.2087   -1.5194 H   0  0  0  0  0  0  0  0  0  0  0  0
   -2.1199    0.5039   -1.7772 H   0  0  0  0  0  0  0  0  0  0  0  0
   -1.7660   -0.9816    0.8606 H   0  0  0  0  0  0  0  0  0  0  0  0
   -6.2996    1.7741   -0.4201 H   0  0  0  0  0  0  0  0  0  0  0  0
   -6.5274    0.0185   -0.4944 H   0  0  0  0  0  0  0  0  0  0  0  0
   -6.0541    0.9272   -1.9400 H   0  0  0  0  0  0  0  0  0  0  0  0
    1.3318    2.5757    0.0284 H   0  0  0  0  0  0  0  0  0  0  0  0
    2.8868   -2.3517    0.0905 H   0  0  0  0  0  0  0  0  0  0  0  0
    6.0076    1.5099   -0.2155 H   0  0  0  0  0  0  0  0  0  0  0  0
    5.2976   -2.7258   -0.0400 H   0  0  0  0  0  0  0  0  0  0  0  0
    6.8909   -0.8286   -0.1936 H   0  0  0  0  0  0  0  0  0  0  0  0
  1 12  1  0  0  0  0
  1 14  1  0  0  0  0
  2 14  2  0  0  0  0
  3  6  1  0  0  0  0
  3  7  1  0  0  0  0
  3 13  1  0  0  0  0
  4  5  1  0  0  0  0
  4 16  1  0  0  0  0
  4 19  1  0  0  0  0
  5 17  2  0  0  0  0
  6  8  1  0  0  0  0
  6 10  1  0  0  0  0
  6 22  1  0  0  0  0
  7  9  1  0  0  0  0
  7 11  1  0  0  0  0
  7 23  1  0  0  0  0
  8  9  1  0  0  0  0
  8 24  1  0  0  0  0
  8 25  1  0  0  0  0
  9 26  1  0  0  0  0
  9 27  1  0  0  0  0
 10 12  1  0  0  0  0
 10 28  1  0  0  0  0
 10 29  1  0  0  0  0
 11 12  1  0  0  0  0
 11 30  1  0  0  0  0
 11 31  1  0  0  0  0
 12 32  1  0  0  0  0
 13 33  1  0  0  0  0
 13 34  1  0  0  0  0
 13 35  1  0  0  0  0
 14 15  1  0  0  0  0
 15 16  2  0  0  0  0
 15 17  1  0  0  0  0
 16 18  1  0  0  0  0
 17 36  1  0  0  0  0
 18 20  2  0  0  0  0
 18 37  1  0  0  0  0
 19 21  2  0  0  0  0
 19 38  1  0  0  0  0
 20 21  1  0  0  0  0
 20 39  1  0  0  0  0
 21 40  1  0  0  0  0
M  END
> <PUBCHEM_COMPOUND_CID>
19770958

> <PUBCHEM_CONFORMER_RMSD>
0.6

> <PUBCHEM_CONFORMER_DIVERSEORDER>
1
72
71
22
43
28
31
54
48
52
50
74
53
45
57
47
49
66
2
42
73
55
35
44
36
29
7
67
11
41
15
18
46
5
56
20
51
63
21
10
14
30
68
13
23
62
19
69
8
24
9
65
33
17
70
37
26
61
25
4
59
58
12
34
3
60
32
6
64
27
38
39
40
16

> <PUBCHEM_MMFF94_PARTIAL_CHARGES>
22
1 -0.43
12 0.28
13 0.27
14 0.81
15 -0.09
16 -0.2
17 0.14
18 -0.11
19 -0.18
2 -0.57
20 -0.15
21 -0.15
3 -0.81
36 0.15
37 0.15
38 0.15
39 0.15
4 0.6
40 0.15
5 -0.71
6 0.27
7 0.27

> <PUBCHEM_EFFECTIVE_ROTOR_COUNT>
4.2

> <PUBCHEM_PHARMACOPHORE_FEATURES>
6
1 2 acceptor
1 3 cation
1 5 acceptor
5 4 5 15 16 17 rings
6 4 16 18 19 20 21 rings
8 3 6 7 8 9 10 11 12 rings

> <PUBCHEM_HEAVY_ATOM_COUNT>
21

> <PUBCHEM_ATOM_DEF_STEREO_COUNT>
0

> <PUBCHEM_ATOM_UDEF_STEREO_COUNT>
2

> <PUBCHEM_BOND_DEF_STEREO_COUNT>
0

> <PUBCHEM_BOND_UDEF_STEREO_COUNT>
0

> <PUBCHEM_ISOTOPIC_ATOM_COUNT>
0

> <PUBCHEM_COMPONENT_COUNT>
1

> <PUBCHEM_CACTVS_TAUTO_COUNT>
1

> <PUBCHEM_CONFORMER_ID>
012DAE4E00000001

> <PUBCHEM_MMFF94_ENERGY>
44.9832

> <PUBCHEM_FEATURE_SELFOVERLAP>
30.557

> <PUBCHEM_SHAPE_FINGERPRINT>
10366900 7 15285354059275177945
10595046 47 18272369814657732184
10680689 15 17385443224347536283
11315181 36 17203607099384213521
12107183 9 17551523145447009074
12236239 1 18060700584831596657
12403259 415 17894910750049984349
12507557 5 18410856572830887025
12616971 3 18131358526690630065
13167823 11 18272370879841302630
13533116 47 14045474302273855860
13862211 1 18410290286099463322
14341114 176 18408892827804493673
14573314 32 16732981999001752386
15183329 4 18412827967288531860
15196674 1 18410574010942386419
15788980 27 18408603664799386903
17349148 13 18060426815321692290
17834072 33 18341614836761653330
17844677 252 18335145301522166125
17857418 61 18202278095875818062
18186145 218 17894906343376420561
19489759 90 15051733075679509579
200 152 18273214205164608065
20612939 158 18410013247570729396
20645477 70 18408889521149524962
21033648 29 17749658662392543844
21033650 10 16342328837810385496
21267235 1 18342185470063563498
21641784 216 17896338947600212652
21709351 56 18334009514769082149
221357 26 18335413539272676604
22646028 1 18060700589105387080
23402539 116 18131912654464805069
23557571 272 16660923275440225783
23559900 14 18411131463432822617
29717793 49 17846218834817212836
300161 21 18201712964242436682
3004659 81 18334576820309964558
34797466 226 15213316204970388918
3545911 37 18186518792063502597
4073 2 17968100858139052090
4214541 1 18411700984881203385
5104073 3 18343303690584673539
5281201 14 17967814959477791404
542803 24 17203331117470214208
59755656 215 18187926127580408230
602551 16 16009038336063371770
633830 44 17676201407411199737
67856867 119 17987792033630178296
90127 26 17531249482423467745
9971528 1 18411978070802640984
9981440 41 17335602589730908680

> <PUBCHEM_SHAPE_MULTIPOLES>
405.49
14.63
1.67
0.96
1.88
0
0.02
-1.09
-1.23
1.11
0.03
-1.34
-0.01
0.02

> <PUBCHEM_SHAPE_SELFOVERLAP>
886.2

> <PUBCHEM_SHAPE_VOLUME>
222

> <PUBCHEM_COORDINATE_TYPE>
2
5
10

$$$$
