46885213
  -OEChem-03232009333D

 70 73  0     1  0  0  0  0  0999 V2000
   -8.9377   -2.4843   -0.7095 F   0  0  0  0  0  0  0  0  0  0  0  0
   11.9923   -2.1093    0.4375 F   0  0  0  0  0  0  0  0  0  0  0  0
   10.0791   -3.1417    0.4785 F   0  0  0  0  0  0  0  0  0  0  0  0
   10.8902   -2.4417   -1.4071 F   0  0  0  0  0  0  0  0  0  0  0  0
    4.0618    0.2743    1.1081 O   0  0  0  0  0  0  0  0  0  0  0  0
   -9.0369    0.4385   -2.3119 O   0  0  0  0  0  0  0  0  0  0  0  0
    6.3499    0.1626   -1.6800 O   0  0  0  0  0  0  0  0  0  0  0  0
   -1.0856    0.4752    0.5516 N   0  0  2  0  0  0  0  0  0  0  0  0
   -4.8059    0.6334    0.3375 N   0  0  0  0  0  0  0  0  0  0  0  0
    2.3345    1.4061    0.0392 N   0  0  0  0  0  0  0  0  0  0  0  0
   -7.5339    0.6584   -0.5349 N   0  0  0  0  0  0  0  0  0  0  0  0
    5.9593    1.7757   -0.0586 N   0  0  0  0  0  0  0  0  0  0  0  0
    1.2377    0.6565    0.5878 C   0  0  1  0  0  0  0  0  0  0  0  0
   -0.0377    1.4873    0.6880 C   0  0  0  0  0  0  0  0  0  0  0  0
    0.8533   -0.5505   -0.2711 C   0  0  0  0  0  0  0  0  0  0  0  0
   -0.6370   -0.3842   -0.5444 C   0  0  0  0  0  0  0  0  0  0  0  0
   -2.3934    1.0612    0.2971 C   0  0  0  0  0  0  0  0  0  0  0  0
   -3.4912    0.0390    0.5760 C   0  0  0  0  0  0  0  0  0  0  0  0
   -5.8389   -0.0711    1.1104 C   0  0  0  0  0  0  0  0  0  0  0  0
   -5.1308    0.6094   -1.0960 C   0  0  0  0  0  0  0  0  0  0  0  0
   -7.2161    0.5600    0.8940 C   0  0  0  0  0  0  0  0  0  0  0  0
   -6.4862    1.2662   -1.3521 C   0  0  0  0  0  0  0  0  0  0  0  0
    3.6685    1.1533    0.3454 C   0  0  0  0  0  0  0  0  0  0  0  0
   -8.7465    0.2945   -1.1251 C   0  0  0  0  0  0  0  0  0  0  0  0
    4.6034    2.0632   -0.4226 C   0  0  0  0  0  0  0  0  0  0  0  0
   -9.7804   -0.3065   -0.2720 C   0  0  0  0  0  0  0  0  0  0  0  0
   -9.8297   -1.6899   -0.1004 C   0  0  0  0  0  0  0  0  0  0  0  0
  -10.7142    0.5093    0.3672 C   0  0  0  0  0  0  0  0  0  0  0  0
    6.7368    0.8334   -0.7269 C   0  0  0  0  0  0  0  0  0  0  0  0
  -10.8127   -2.2577    0.7102 C   0  0  0  0  0  0  0  0  0  0  0  0
  -11.6971   -0.0585    1.1781 C   0  0  0  0  0  0  0  0  0  0  0  0
  -11.7465   -1.4419    1.3494 C   0  0  0  0  0  0  0  0  0  0  0  0
    8.1153    0.6332   -0.2102 C   0  0  0  0  0  0  0  0  0  0  0  0
    8.7565   -0.5924   -0.3903 C   0  0  0  0  0  0  0  0  0  0  0  0
    8.7680    1.6707    0.4556 C   0  0  0  0  0  0  0  0  0  0  0  0
   10.0505   -0.7805    0.0952 C   0  0  0  0  0  0  0  0  0  0  0  0
   10.0619    1.4826    0.9414 C   0  0  0  0  0  0  0  0  0  0  0  0
   10.7034    0.2570    0.7610 C   0  0  0  0  0  0  0  0  0  0  0  0
   10.7361   -2.0910   -0.0961 C   0  0  0  0  0  0  0  0  0  0  0  0
    1.5255    0.2983    1.5850 H   0  0  0  0  0  0  0  0  0  0  0  0
   -0.0930    2.2335   -0.1161 H   0  0  0  0  0  0  0  0  0  0  0  0
   -0.0965    2.0124    1.6474 H   0  0  0  0  0  0  0  0  0  0  0  0
    1.0354   -1.4735    0.2929 H   0  0  0  0  0  0  0  0  0  0  0  0
    1.4210   -0.6143   -1.2058 H   0  0  0  0  0  0  0  0  0  0  0  0
   -1.1433   -1.3543   -0.5542 H   0  0  0  0  0  0  0  0  0  0  0  0
   -0.7771    0.0923   -1.5232 H   0  0  0  0  0  0  0  0  0  0  0  0
   -2.4487    1.4691   -0.7189 H   0  0  0  0  0  0  0  0  0  0  0  0
   -2.5477    1.9087    0.9795 H   0  0  0  0  0  0  0  0  0  0  0  0
   -3.4000   -0.2551    1.6310 H   0  0  0  0  0  0  0  0  0  0  0  0
   -3.3626   -0.8789   -0.0111 H   0  0  0  0  0  0  0  0  0  0  0  0
   -5.1525   -0.4230   -1.4704 H   0  0  0  0  0  0  0  0  0  0  0  0
   -4.3818    1.1536   -1.6806 H   0  0  0  0  0  0  0  0  0  0  0  0
   -5.6082   -0.0231    2.1814 H   0  0  0  0  0  0  0  0  0  0  0  0
   -5.8740   -1.1315    0.8266 H   0  0  0  0  0  0  0  0  0  0  0  0
    2.1251    2.1144   -0.6587 H   0  0  0  0  0  0  0  0  0  0  0  0
   -6.4522    2.3319   -1.0942 H   0  0  0  0  0  0  0  0  0  0  0  0
   -6.7370    1.1957   -2.4155 H   0  0  0  0  0  0  0  0  0  0  0  0
   -7.9682   -0.0156    1.4379 H   0  0  0  0  0  0  0  0  0  0  0  0
   -7.2351    1.5808    1.2952 H   0  0  0  0  0  0  0  0  0  0  0  0
    4.3945    3.1056   -0.1641 H   0  0  0  0  0  0  0  0  0  0  0  0
    4.4593    1.9135   -1.4973 H   0  0  0  0  0  0  0  0  0  0  0  0
    6.3151    2.2386    0.7708 H   0  0  0  0  0  0  0  0  0  0  0  0
  -10.6846    1.5885    0.2409 H   0  0  0  0  0  0  0  0  0  0  0  0
  -10.8508   -3.3347    0.8436 H   0  0  0  0  0  0  0  0  0  0  0  0
  -12.4239    0.5766    1.6761 H   0  0  0  0  0  0  0  0  0  0  0  0
  -12.5117   -1.8840    1.9806 H   0  0  0  0  0  0  0  0  0  0  0  0
    8.2545   -1.4092   -0.9037 H   0  0  0  0  0  0  0  0  0  0  0  0
    8.3167    2.6492    0.5901 H   0  0  0  0  0  0  0  0  0  0  0  0
   10.5731    2.2925    1.4538 H   0  0  0  0  0  0  0  0  0  0  0  0
   11.7117    0.1317    1.1456 H   0  0  0  0  0  0  0  0  0  0  0  0
  1 27  1  0  0  0  0
  2 39  1  0  0  0  0
  3 39  1  0  0  0  0
  4 39  1  0  0  0  0
  5 23  2  0  0  0  0
  6 24  2  0  0  0  0
  7 29  2  0  0  0  0
  8 14  1  0  0  0  0
  8 16  1  0  0  0  0
  8 17  1  0  0  0  0
  9 18  1  0  0  0  0
  9 19  1  0  0  0  0
  9 20  1  0  0  0  0
 10 13  1  0  0  0  0
 10 23  1  0  0  0  0
 10 55  1  0  0  0  0
 11 21  1  0  0  0  0
 11 22  1  0  0  0  0
 11 24  1  0  0  0  0
 12 25  1  0  0  0  0
 12 29  1  0  0  0  0
 12 62  1  0  0  0  0
 13 14  1  0  0  0  0
 13 15  1  0  0  0  0
 13 40  1  0  0  0  0
 14 41  1  0  0  0  0
 14 42  1  0  0  0  0
 15 16  1  0  0  0  0
 15 43  1  0  0  0  0
 15 44  1  0  0  0  0
 16 45  1  0  0  0  0
 16 46  1  0  0  0  0
 17 18  1  0  0  0  0
 17 47  1  0  0  0  0
 17 48  1  0  0  0  0
 18 49  1  0  0  0  0
 18 50  1  0  0  0  0
 19 21  1  0  0  0  0
 19 53  1  0  0  0  0
 19 54  1  0  0  0  0
 20 22  1  0  0  0  0
 20 51  1  0  0  0  0
 20 52  1  0  0  0  0
 21 58  1  0  0  0  0
 21 59  1  0  0  0  0
 22 56  1  0  0  0  0
 22 57  1  0  0  0  0
 23 25  1  0  0  0  0
 24 26  1  0  0  0  0
 25 60  1  0  0  0  0
 25 61  1  0  0  0  0
 26 27  1  0  0  0  0
 26 28  2  0  0  0  0
 27 30  2  0  0  0  0
 28 31  1  0  0  0  0
 28 63  1  0  0  0  0
 29 33  1  0  0  0  0
 30 32  1  0  0  0  0
 30 64  1  0  0  0  0
 31 32  2  0  0  0  0
 31 65  1  0  0  0  0
 32 66  1  0  0  0  0
 33 34  2  0  0  0  0
 33 35  1  0  0  0  0
 34 36  1  0  0  0  0
 34 67  1  0  0  0  0
 35 37  2  0  0  0  0
 35 68  1  0  0  0  0
 36 38  2  0  0  0  0
 36 39  1  0  0  0  0
 37 38  1  0  0  0  0
 37 69  1  0  0  0  0
 38 70  1  0  0  0  0
M  END
> <PUBCHEM_COMPOUND_CID>
46885213

> <PUBCHEM_CONFORMER_RMSD>
1.6

> <PUBCHEM_CONFORMER_DIVERSEORDER>
2
74
80
37
31
58
23
52
19
88
68
82
36
77
60
22
5
49
28
11
55
63
33
38
53
89
87
6
54
78
81
42
21
7
61
51
30
62
72
47
48
20
26
56
46
45
69
50
85
43
18
83
57
79
40
12
15
16
76
35
32
75
27
71
59
24
14
39
84
65
86
34
4
17
73
29
64
1
10
66
67
70
44
8
13
25
41
3
9

> <PUBCHEM_MMFF94_PARTIAL_CHARGES>
48
1 -0.19
10 -0.73
11 -0.66
12 -0.73
13 0.3
14 0.27
16 0.27
17 0.27
18 0.27
19 0.27
2 -0.34
20 0.27
21 0.3
22 0.3
23 0.57
24 0.54
25 0.36
26 0.09
27 0.19
28 -0.15
29 0.54
3 -0.34
30 -0.15
31 -0.15
32 -0.15
33 0.09
34 -0.15
35 -0.15
36 -0.14
37 -0.15
38 -0.15
39 1.16
4 -0.34
5 -0.57
55 0.37
6 -0.57
62 0.37
63 0.15
64 0.15
65 0.15
66 0.15
67 0.15
68 0.15
69 0.15
7 -0.57
70 0.15
8 -0.81
9 -0.81

> <PUBCHEM_EFFECTIVE_ROTOR_COUNT>
14.2

> <PUBCHEM_PHARMACOPHORE_FEATURES>
11
1 10 donor
1 12 donor
1 5 acceptor
1 6 acceptor
1 7 acceptor
1 8 cation
1 9 cation
5 8 13 14 15 16 rings
6 26 27 28 30 31 32 rings
6 33 34 35 36 37 38 rings
6 9 11 19 20 21 22 rings

> <PUBCHEM_HEAVY_ATOM_COUNT>
39

> <PUBCHEM_ATOM_DEF_STEREO_COUNT>
1

> <PUBCHEM_ATOM_UDEF_STEREO_COUNT>
0

> <PUBCHEM_BOND_DEF_STEREO_COUNT>
0

> <PUBCHEM_BOND_UDEF_STEREO_COUNT>
0

> <PUBCHEM_ISOTOPIC_ATOM_COUNT>
0

> <PUBCHEM_COMPONENT_COUNT>
1

> <PUBCHEM_CACTVS_TAUTO_COUNT>
4

> <PUBCHEM_CONFORMER_ID>
02CB695D00000002

> <PUBCHEM_MMFF94_ENERGY>
84.1563

> <PUBCHEM_FEATURE_SELFOVERLAP>
55.822

> <PUBCHEM_SHAPE_FINGERPRINT>
10674148 151 13110966427543975775
12089408 11 17989210339332171952
12522641 33 13190334669183005232
12559415 135 15626224624105951794
12664476 115 12391516378038661811
13553643 46 9799699208141361955
14202775 3 18408608075546872395
14251764 46 16008745823295315257
15065858 18 18408598167104702348
15247644 1 18408324388704377786
15510794 2 18408887355805123163
15840311 113 17822857601235357876
16728433 110 18272930553146738312
19315958 150 9079121072706805344
20105231 36 18333170565605676056
21102433 48 18131912671624082463
21362267 20 18271804683262995015
21792961 116 18334579045145540609
21895431 317 18339643331447709862
232437 2 18410575088958052713
3092352 35 16370721547796203993
42767 2 16805319972773266050
44389302 135 16559033774830171038
5381727 24 17821728351638132059
9937071 3 17489595562330890750

> <PUBCHEM_SHAPE_MULTIPOLES>
730.99
61.37
2.16
1.25
13.79
1.52
0.33
31.42
-3.87
4.25
0.04
-1.81
-0.05
2.06

> <PUBCHEM_SHAPE_SELFOVERLAP>
1551.141

> <PUBCHEM_SHAPE_VOLUME>
408.1

> <PUBCHEM_COORDINATE_TYPE>
2
5
10

$$$$
