71450922
  -OEChem-03232009333D

 43 47  0     1  0  0  0  0  0999 V2000
   -1.9835   -1.4162   -0.4950 O   0  0  0  0  0  0  0  0  0  0  0  0
   -0.0024   -2.4829   -0.2189 O   0  0  0  0  0  0  0  0  0  0  0  0
    5.1333    1.4088    0.1423 O   0  0  0  0  0  0  0  0  0  0  0  0
   -4.9257    0.3151   -0.6538 N   0  0  0  0  0  0  0  0  0  0  0  0
   -0.1455   -0.1260   -0.3541 N   0  0  0  0  0  0  0  0  0  0  0  0
   -2.4689   -0.0642   -0.3459 C   0  0  2  0  0  0  0  0  0  0  0  0
   -3.0161    0.1106    1.0958 C   0  0  0  0  0  0  0  0  0  0  0  0
   -3.6210    0.1742   -1.3474 C   0  0  0  0  0  0  0  0  0  0  0  0
   -3.7211    1.4741    1.2045 C   0  0  0  0  0  0  0  0  0  0  0  0
   -4.1017   -0.9597    1.3298 C   0  0  0  0  0  0  0  0  0  0  0  0
   -5.1482   -0.8662    0.2078 C   0  0  0  0  0  0  0  0  0  0  0  0
   -4.8797    1.5263    0.1950 C   0  0  0  0  0  0  0  0  0  0  0  0
   -1.2316    0.7723   -0.6479 C   0  0  0  0  0  0  0  0  0  0  0  0
   -0.6191   -1.4329   -0.3291 C   0  0  0  0  0  0  0  0  0  0  0  0
    1.2053    0.3073   -0.2293 C   0  0  0  0  0  0  0  0  0  0  0  0
    2.2205   -0.6441   -0.0599 C   0  0  0  0  0  0  0  0  0  0  0  0
    1.4981    1.6726   -0.2778 C   0  0  0  0  0  0  0  0  0  0  0  0
    3.5485   -0.1992    0.0613 C   0  0  0  0  0  0  0  0  0  0  0  0
    2.8113    2.1374   -0.1595 C   0  0  0  0  0  0  0  0  0  0  0  0
    3.7987    1.1681    0.0079 C   0  0  0  0  0  0  0  0  0  0  0  0
    4.8148   -0.8166    0.2386 C   0  0  0  0  0  0  0  0  0  0  0  0
    5.7397    0.2009    0.2812 C   0  0  0  0  0  0  0  0  0  0  0  0
    5.0942   -2.2598    0.3547 C   0  0  0  0  0  0  0  0  0  0  0  0
   -2.2263    0.0081    1.8479 H   0  0  0  0  0  0  0  0  0  0  0  0
   -3.4514    1.0823   -1.9396 H   0  0  0  0  0  0  0  0  0  0  0  0
   -3.6879   -0.6496   -2.0690 H   0  0  0  0  0  0  0  0  0  0  0  0
   -3.0226    2.2964    1.0187 H   0  0  0  0  0  0  0  0  0  0  0  0
   -4.1107    1.6141    2.2201 H   0  0  0  0  0  0  0  0  0  0  0  0
   -4.5805   -0.7988    2.3035 H   0  0  0  0  0  0  0  0  0  0  0  0
   -3.6634   -1.9639    1.3539 H   0  0  0  0  0  0  0  0  0  0  0  0
   -6.1549   -0.8240    0.6417 H   0  0  0  0  0  0  0  0  0  0  0  0
   -4.7843    2.4187   -0.4361 H   0  0  0  0  0  0  0  0  0  0  0  0
   -5.8339    1.6427    0.7242 H   0  0  0  0  0  0  0  0  0  0  0  0
   -5.1288   -1.7778   -0.4027 H   0  0  0  0  0  0  0  0  0  0  0  0
   -1.1604    1.0356   -1.7097 H   0  0  0  0  0  0  0  0  0  0  0  0
   -1.1956    1.6786   -0.0405 H   0  0  0  0  0  0  0  0  0  0  0  0
    2.0533   -1.7097   -0.0139 H   0  0  0  0  0  0  0  0  0  0  0  0
    0.7299    2.4268   -0.4193 H   0  0  0  0  0  0  0  0  0  0  0  0
    3.0471    3.1942   -0.1986 H   0  0  0  0  0  0  0  0  0  0  0  0
    6.8133    0.2315    0.3987 H   0  0  0  0  0  0  0  0  0  0  0  0
    4.5687   -2.6854    1.2158 H   0  0  0  0  0  0  0  0  0  0  0  0
    4.7644   -2.7892   -0.5452 H   0  0  0  0  0  0  0  0  0  0  0  0
    6.1640   -2.4534    0.4851 H   0  0  0  0  0  0  0  0  0  0  0  0
  1  6  1  0  0  0  0
  1 14  1  0  0  0  0
  2 14  2  0  0  0  0
  3 20  1  0  0  0  0
  3 22  1  0  0  0  0
  4  8  1  0  0  0  0
  4 11  1  0  0  0  0
  4 12  1  0  0  0  0
  5 13  1  0  0  0  0
  5 14  1  0  0  0  0
  5 15  1  0  0  0  0
  6  7  1  0  0  0  0
  6  8  1  0  0  0  0
  6 13  1  0  0  0  0
  7  9  1  0  0  0  0
  7 10  1  0  0  0  0
  7 24  1  0  0  0  0
  8 25  1  0  0  0  0
  8 26  1  0  0  0  0
  9 12  1  0  0  0  0
  9 27  1  0  0  0  0
  9 28  1  0  0  0  0
 10 11  1  0  0  0  0
 10 29  1  0  0  0  0
 10 30  1  0  0  0  0
 11 31  1  0  0  0  0
 11 34  1  0  0  0  0
 12 32  1  0  0  0  0
 12 33  1  0  0  0  0
 13 35  1  0  0  0  0
 13 36  1  0  0  0  0
 15 16  2  0  0  0  0
 15 17  1  0  0  0  0
 16 18  1  0  0  0  0
 16 37  1  0  0  0  0
 17 19  2  0  0  0  0
 17 38  1  0  0  0  0
 18 20  2  0  0  0  0
 18 21  1  0  0  0  0
 19 20  1  0  0  0  0
 19 39  1  0  0  0  0
 21 22  2  0  0  0  0
 21 23  1  0  0  0  0
 22 40  1  0  0  0  0
 23 41  1  0  0  0  0
 23 42  1  0  0  0  0
 23 43  1  0  0  0  0
M  END
> <PUBCHEM_COMPOUND_CID>
71450922

> <PUBCHEM_CONFORMER_RMSD>
0.6

> <PUBCHEM_CONFORMER_DIVERSEORDER>
3
7
1
6
2
4
8
5

> <PUBCHEM_MMFF94_PARTIAL_CHARGES>
23
1 -0.43
11 0.27
12 0.27
13 0.3
14 0.78
15 0.12
16 -0.15
17 -0.15
19 -0.15
2 -0.57
20 0.14
21 -0.18
22 -0.01
23 0.18
3 -0.28
37 0.15
38 0.15
39 0.15
4 -0.81
40 0.15
5 -0.48
6 0.28
8 0.27

> <PUBCHEM_EFFECTIVE_ROTOR_COUNT>
2.6

> <PUBCHEM_PHARMACOPHORE_FEATURES>
7
1 2 acceptor
1 3 acceptor
1 4 cation
5 1 5 6 13 14 rings
5 3 18 20 21 22 rings
6 15 16 17 18 19 20 rings
8 4 6 7 8 9 10 11 12 rings

> <PUBCHEM_HEAVY_ATOM_COUNT>
23

> <PUBCHEM_ATOM_DEF_STEREO_COUNT>
1

> <PUBCHEM_ATOM_UDEF_STEREO_COUNT>
0

> <PUBCHEM_BOND_DEF_STEREO_COUNT>
0

> <PUBCHEM_BOND_UDEF_STEREO_COUNT>
0

> <PUBCHEM_ISOTOPIC_ATOM_COUNT>
0

> <PUBCHEM_COMPONENT_COUNT>
1

> <PUBCHEM_CACTVS_TAUTO_COUNT>
1

> <PUBCHEM_CONFORMER_ID>
0442412A00000003

> <PUBCHEM_MMFF94_ENERGY>
70.0665

> <PUBCHEM_FEATURE_SELFOVERLAP>
35.627

> <PUBCHEM_SHAPE_FINGERPRINT>
10 15 18116143541169251680
10366900 7 15936404568047383865
10369192 42 14565941518462572636
11045977 3 17967818257880766779
11089746 13 17632572782317197592
11315181 36 18334295392076942129
11578080 2 15866303941466738847
12107183 9 17837496254233483066
12166972 35 18272931660868213121
12236239 1 18060416906810904893
12403260 363 18343302600185426733
12507557 5 18409168831230492961
12596602 18 18408041822773422859
12670546 56 18131627894138923432
12788726 201 17774734086564560696
128620 24 10231758889773798936
12916748 109 18131078146582400593
13073987 5 18413109463439587192
13288520 33 7925908180416972745
13533116 47 17704072855346042990
13583140 156 17894910763008713531
13675066 3 18040715891787203676
13785724 45 17837213667351852894
13914758 101 18334287635983164661
14004511 7 18272089417738769020
14251764 18 18412821400700326034
14341114 176 18333737917895340184
14466204 15 18270681956861548241
14739800 52 17417235680591090656
15196674 1 18410293609696924276
15788980 27 18060700584910789420
17349148 13 17917994983536843572
17844677 252 18335426763571828804
1813 80 17095243618628408100
19141452 34 18411132567566484790
200 152 18272365382583740173
20511986 3 17988062453429185832
20645477 70 18335978697482599638
21033648 144 18198326537222814596
21033648 29 18115006580840679821
21033650 10 16629150752436188560
21065198 57 18334859471300534416
21267235 1 18409451350438111958
21279426 13 18191020114814790190
21421861 104 18041827434452060034
21682296 61 18268153058969932774
23184049 59 18409451392617424484
23402539 116 17988920076503979957
23557571 272 14261360162522004617
23559900 14 17458061590479425109
2838139 119 18270674256929704741
3004659 81 18260267418084811638
314173 85 16225767410730833741
335352 9 18411134723903772686
345986 75 18194950860779413018
34797466 226 15482388759165225472
350125 39 18339926042815338855
351380 180 18409167714296286001
4073 2 17895481426691717754
4214541 1 18410292527629098173
474 4 18342177747933904927
5104073 3 18336824290453633904
542803 24 17346600789583598440
602551 16 15864360189454735464
6328613 192 18339931515052476252
7226269 152 17632581534901455992
7495541 125 13479136817672384532
90127 26 17022621983130238116

> <PUBCHEM_SHAPE_MULTIPOLES>
445.76
13.38
2.04
0.97
4.29
0.28
-0.09
-0.11
-2.11
1.28
-0.08
-1.11
-0.02
-0.26

> <PUBCHEM_SHAPE_SELFOVERLAP>
999.441

> <PUBCHEM_SHAPE_VOLUME>
235.7

> <PUBCHEM_COORDINATE_TYPE>
2
5
10

$$$$
