11311148
  -OEChem-03232009333D

 41 42  0     1  0  0  0  0  0999 V2000
   -0.3695    0.3390    2.0799 O   0  0  0  0  0  0  0  0  0  0  0  0
   -2.2149   -0.6352    0.1010 N   0  0  0  0  0  0  0  0  0  0  0  0
   -1.2533    0.4243   -0.1648 C   0  0  1  0  0  0  0  0  0  0  0  0
   -3.3461   -0.6082   -0.8258 C   0  0  0  0  0  0  0  0  0  0  0  0
   -1.6327   -1.9684   -0.0494 C   0  0  0  0  0  0  0  0  0  0  0  0
   -3.9824   -1.9761   -0.6279 C   0  0  0  0  0  0  0  0  0  0  0  0
   -2.8572   -2.8692   -0.1143 C   0  0  0  0  0  0  0  0  0  0  0  0
   -1.9486    1.7887   -0.0348 C   0  0  0  0  0  0  0  0  0  0  0  0
   -0.1461    0.2643    0.8725 C   0  0  0  0  0  0  0  0  0  0  0  0
   -0.9758    2.9540   -0.2441 C   0  0  0  0  0  0  0  0  0  0  0  0
    1.2485    0.0125    0.4184 C   0  0  0  0  0  0  0  0  0  0  0  0
   -1.6842    4.2952   -0.1342 C   0  0  0  0  0  0  0  0  0  0  0  0
    1.6534    0.5214   -0.7967 C   0  0  0  0  0  0  0  0  0  0  0  0
    2.0882   -0.7198    1.2300 C   0  0  0  0  0  0  0  0  0  0  0  0
    2.9613    0.2865   -1.2211 C   0  0  0  0  0  0  0  0  0  0  0  0
    3.3961   -0.9545    0.8057 C   0  0  0  0  0  0  0  0  0  0  0  0
    3.8326   -0.4514   -0.4198 C   0  0  0  0  0  0  0  0  0  0  0  0
    5.2306   -0.7031   -0.8746 C   0  0  0  0  0  0  0  0  0  0  0  0
   -0.8743    0.3153   -1.1850 H   0  0  0  0  0  0  0  0  0  0  0  0
   -3.0224   -0.4986   -1.8689 H   0  0  0  0  0  0  0  0  0  0  0  0
   -4.0748    0.1748   -0.5949 H   0  0  0  0  0  0  0  0  0  0  0  0
   -0.9915   -2.2572    0.7895 H   0  0  0  0  0  0  0  0  0  0  0  0
   -1.0581   -2.0626   -0.9801 H   0  0  0  0  0  0  0  0  0  0  0  0
   -4.4092   -2.3587   -1.5606 H   0  0  0  0  0  0  0  0  0  0  0  0
   -4.7867   -1.9295    0.1157 H   0  0  0  0  0  0  0  0  0  0  0  0
   -3.1131   -3.2516    0.8809 H   0  0  0  0  0  0  0  0  0  0  0  0
   -2.6895   -3.7285   -0.7714 H   0  0  0  0  0  0  0  0  0  0  0  0
   -2.4133    1.8877    0.9553 H   0  0  0  0  0  0  0  0  0  0  0  0
   -2.7467    1.8943   -0.7787 H   0  0  0  0  0  0  0  0  0  0  0  0
   -0.5169    2.8815   -1.2361 H   0  0  0  0  0  0  0  0  0  0  0  0
   -0.1702    2.9254    0.4973 H   0  0  0  0  0  0  0  0  0  0  0  0
   -2.1350    4.4206    0.8554 H   0  0  0  0  0  0  0  0  0  0  0  0
   -0.9735    5.1129   -0.2898 H   0  0  0  0  0  0  0  0  0  0  0  0
   -2.4746    4.3851   -0.8862 H   0  0  0  0  0  0  0  0  0  0  0  0
    1.0203    1.1226   -1.4370 H   0  0  0  0  0  0  0  0  0  0  0  0
    1.7604   -1.1230    2.1834 H   0  0  0  0  0  0  0  0  0  0  0  0
    3.2915    0.6872   -2.1759 H   0  0  0  0  0  0  0  0  0  0  0  0
    4.0644   -1.5337    1.4372 H   0  0  0  0  0  0  0  0  0  0  0  0
    5.9124   -0.7991   -0.0228 H   0  0  0  0  0  0  0  0  0  0  0  0
    5.2737   -1.6245   -1.4637 H   0  0  0  0  0  0  0  0  0  0  0  0
    5.6008    0.1247   -1.4891 H   0  0  0  0  0  0  0  0  0  0  0  0
  1  9  2  0  0  0  0
  2  3  1  0  0  0  0
  2  4  1  0  0  0  0
  2  5  1  0  0  0  0
  3  8  1  0  0  0  0
  3  9  1  0  0  0  0
  3 19  1  0  0  0  0
  4  6  1  0  0  0  0
  4 20  1  0  0  0  0
  4 21  1  0  0  0  0
  5  7  1  0  0  0  0
  5 22  1  0  0  0  0
  5 23  1  0  0  0  0
  6  7  1  0  0  0  0
  6 24  1  0  0  0  0
  6 25  1  0  0  0  0
  7 26  1  0  0  0  0
  7 27  1  0  0  0  0
  8 10  1  0  0  0  0
  8 28  1  0  0  0  0
  8 29  1  0  0  0  0
  9 11  1  0  0  0  0
 10 12  1  0  0  0  0
 10 30  1  0  0  0  0
 10 31  1  0  0  0  0
 11 13  2  0  0  0  0
 11 14  1  0  0  0  0
 12 32  1  0  0  0  0
 12 33  1  0  0  0  0
 12 34  1  0  0  0  0
 13 15  1  0  0  0  0
 13 35  1  0  0  0  0
 14 16  2  0  0  0  0
 14 36  1  0  0  0  0
 15 17  2  0  0  0  0
 15 37  1  0  0  0  0
 16 17  1  0  0  0  0
 16 38  1  0  0  0  0
 17 18  1  0  0  0  0
 18 39  1  0  0  0  0
 18 40  1  0  0  0  0
 18 41  1  0  0  0  0
M  END
> <PUBCHEM_COMPOUND_CID>
11311148

> <PUBCHEM_CONFORMER_RMSD>
0.8

> <PUBCHEM_CONFORMER_DIVERSEORDER>
1
7
13
12
9
8
3
11
5
6
4
2
10

> <PUBCHEM_MMFF94_PARTIAL_CHARGES>
17
1 -0.57
11 0.09
13 -0.15
14 -0.15
15 -0.15
16 -0.15
17 -0.14
18 0.14
2 -0.81
3 0.33
35 0.15
36 0.15
37 0.15
38 0.15
4 0.27
5 0.27
9 0.42

> <PUBCHEM_EFFECTIVE_ROTOR_COUNT>
6

> <PUBCHEM_PHARMACOPHORE_FEATURES>
5
1 1 acceptor
1 12 hydrophobe
1 2 cation
5 2 4 5 6 7 rings
6 11 13 14 15 16 17 rings

> <PUBCHEM_HEAVY_ATOM_COUNT>
18

> <PUBCHEM_ATOM_DEF_STEREO_COUNT>
1

> <PUBCHEM_ATOM_UDEF_STEREO_COUNT>
0

> <PUBCHEM_BOND_DEF_STEREO_COUNT>
0

> <PUBCHEM_BOND_UDEF_STEREO_COUNT>
0

> <PUBCHEM_ISOTOPIC_ATOM_COUNT>
0

> <PUBCHEM_COMPONENT_COUNT>
1

> <PUBCHEM_CACTVS_TAUTO_COUNT>
2

> <PUBCHEM_CONFORMER_ID>
00AC982C00000001

> <PUBCHEM_MMFF94_ENERGY>
37.9266

> <PUBCHEM_FEATURE_SELFOVERLAP>
25.371

> <PUBCHEM_SHAPE_FINGERPRINT>
11045515 52 18115026419537005461
11578080 2 17244942152051006972
11833330 49 18408877456064255001
12173636 292 18194108617044300941
12500047 106 18124873461265722292
12553582 1 18336823186531389987
12714826 92 18059853956630779554
12788726 201 18334290938084878907
13583140 156 17773006719653597474
13955234 65 17404869640801010267
14178342 30 18191566589622038130
15842332 3 17823690868166644658
15906896 17 18116445743014099993
16752209 62 18337655435323910295
16945 1 18338508660256786657
17539 30 18341603798743513637
1813 80 18127711502508697415
18186145 218 15647322078615410071
19862831 5 17676481787023894766
200 152 18040716995646825494
20600515 1 18058184988411545063
20671657 53 18197222648970083351
20871999 31 18412543189017831356
21061003 4 16702019802823639218
21285901 2 18131635548065797871
21426921 1 18411421666062672868
21524375 3 17682682822267627169
21634736 98 18188772876393646582
22620623 9 18130216065368990173
23382010 3 16444461489219345915
23402539 116 18409728456467530462
23402655 69 17385715881429639902
23419403 2 17273956060589519977
23557571 272 18341033207837648328
23559900 14 18342449357739826496
23598288 3 18115588115380815369
25147074 1 17750229206654876298
298252 57 17974852757123960161
314173 41 18194120948222715039
59755656 520 17556594144498283961
603831 33 18186236217243049874
6049 1 17846206753137538888
7164475 11 18335976476488498966
7364860 26 17690838287016217141
7615 1 17750501898154408792
81228 2 18342458132210501289

> <PUBCHEM_SHAPE_MULTIPOLES>
359.58
7.58
3.46
1.2
6.66
3.92
0.35
-4.68
-2.57
-5.02
-0.33
0.6
-0.08
-0.49

> <PUBCHEM_SHAPE_SELFOVERLAP>
743.155

> <PUBCHEM_SHAPE_VOLUME>
209

> <PUBCHEM_COORDINATE_TYPE>
2
5
10

$$$$
