44251387
  -OEChem-03232009313D

 45 48  0     0  0  0  0  0  0999 V2000
   -1.4594    0.7945    0.0865 O   0  0  0  0  0  0  0  0  0  0  0  0
    4.6087   -1.2555    0.1999 O   0  0  0  0  0  0  0  0  0  0  0  0
   -5.0531   -1.9674   -0.0722 N   0  0  0  0  0  0  0  0  0  0  0  0
   -0.9004   -1.4846    0.0890 N   0  0  0  0  0  0  0  0  0  0  0  0
    2.5586   -0.1688    0.1652 N   0  0  0  0  0  0  0  0  0  0  0  0
    6.0386    1.9116   -0.9942 N   0  0  0  0  0  0  0  0  0  0  0  0
   -4.3203    0.1388   -0.0084 C   0  0  0  0  0  0  0  0  0  0  0  0
   -5.4681   -0.6548   -0.0646 C   0  0  0  0  0  0  0  0  0  0  0  0
   -3.2038   -0.7431    0.0173 C   0  0  0  0  0  0  0  0  0  0  0  0
   -4.4651    1.5402    0.0108 C   0  0  0  0  0  0  0  0  0  0  0  0
   -3.6864   -2.0309   -0.0230 C   0  0  0  0  0  0  0  0  0  0  0  0
   -5.7497    2.0945   -0.0267 C   0  0  0  0  0  0  0  0  0  0  0  0
   -6.7586   -0.1147   -0.1027 C   0  0  0  0  0  0  0  0  0  0  0  0
   -6.8774    1.2779   -0.0827 C   0  0  0  0  0  0  0  0  0  0  0  0
   -1.8097   -0.4066    0.0744 C   0  0  0  0  0  0  0  0  0  0  0  0
   -5.9113    3.5783   -0.0068 C   0  0  0  0  0  0  0  0  0  0  0  0
    0.5156   -1.4609    0.1185 C   0  0  0  0  0  0  0  0  0  0  0  0
    1.2526   -2.6400    0.1290 C   0  0  0  0  0  0  0  0  0  0  0  0
    1.2101   -0.2621    0.1373 C   0  0  0  0  0  0  0  0  0  0  0  0
    3.2410   -1.3359    0.1748 C   0  0  0  0  0  0  0  0  0  0  0  0
    2.6417   -2.5850    0.1577 C   0  0  0  0  0  0  0  0  0  0  0  0
    5.1702    0.0057    0.2133 C   0  0  0  0  0  0  0  0  0  0  0  0
    5.4891    0.6770   -0.9561 C   0  0  0  0  0  0  0  0  0  0  0  0
    5.4319    0.6425    1.4213 C   0  0  0  0  0  0  0  0  0  0  0  0
    5.2296    0.0371   -2.2804 C   0  0  0  0  0  0  0  0  0  0  0  0
    5.9968    1.9131    1.4231 C   0  0  0  0  0  0  0  0  0  0  0  0
    6.2788    2.4990    0.1996 C   0  0  0  0  0  0  0  0  0  0  0  0
   -3.5954    2.1892    0.0565 H   0  0  0  0  0  0  0  0  0  0  0  0
   -5.6692   -2.7678   -0.1090 H   0  0  0  0  0  0  0  0  0  0  0  0
   -3.2094   -3.0007   -0.0228 H   0  0  0  0  0  0  0  0  0  0  0  0
   -7.6370   -0.7497   -0.1456 H   0  0  0  0  0  0  0  0  0  0  0  0
   -7.8722    1.7170   -0.1096 H   0  0  0  0  0  0  0  0  0  0  0  0
   -5.9568    3.9369    1.0263 H   0  0  0  0  0  0  0  0  0  0  0  0
   -5.0760    4.0727   -0.5144 H   0  0  0  0  0  0  0  0  0  0  0  0
   -6.8264    3.8849   -0.5248 H   0  0  0  0  0  0  0  0  0  0  0  0
   -1.2780   -2.4272    0.0759 H   0  0  0  0  0  0  0  0  0  0  0  0
    0.7567   -3.6069    0.1148 H   0  0  0  0  0  0  0  0  0  0  0  0
    0.7433    0.7121    0.1315 H   0  0  0  0  0  0  0  0  0  0  0  0
    3.2309   -3.4954    0.1655 H   0  0  0  0  0  0  0  0  0  0  0  0
    5.1994    0.1549    2.3639 H   0  0  0  0  0  0  0  0  0  0  0  0
    4.1541   -0.0647   -2.4545 H   0  0  0  0  0  0  0  0  0  0  0  0
    5.6432    0.6426   -3.0940 H   0  0  0  0  0  0  0  0  0  0  0  0
    5.6998   -0.9502   -2.3323 H   0  0  0  0  0  0  0  0  0  0  0  0
    6.2096    2.4283    2.3527 H   0  0  0  0  0  0  0  0  0  0  0  0
    6.7197    3.4889    0.1465 H   0  0  0  0  0  0  0  0  0  0  0  0
  1 15  2  0  0  0  0
  2 20  1  0  0  0  0
  2 22  1  0  0  0  0
  3  8  1  0  0  0  0
  3 11  1  0  0  0  0
  3 29  1  0  0  0  0
  4 15  1  0  0  0  0
  4 17  1  0  0  0  0
  4 36  1  0  0  0  0
  5 19  1  0  0  0  0
  5 20  2  0  0  0  0
  6 23  1  0  0  0  0
  6 27  2  0  0  0  0
  7  8  2  0  0  0  0
  7  9  1  0  0  0  0
  7 10  1  0  0  0  0
  8 13  1  0  0  0  0
  9 11  2  0  0  0  0
  9 15  1  0  0  0  0
 10 12  2  0  0  0  0
 10 28  1  0  0  0  0
 11 30  1  0  0  0  0
 12 14  1  0  0  0  0
 12 16  1  0  0  0  0
 13 14  2  0  0  0  0
 13 31  1  0  0  0  0
 14 32  1  0  0  0  0
 16 33  1  0  0  0  0
 16 34  1  0  0  0  0
 16 35  1  0  0  0  0
 17 18  1  0  0  0  0
 17 19  2  0  0  0  0
 18 21  2  0  0  0  0
 18 37  1  0  0  0  0
 19 38  1  0  0  0  0
 20 21  1  0  0  0  0
 21 39  1  0  0  0  0
 22 23  2  0  0  0  0
 22 24  1  0  0  0  0
 23 25  1  0  0  0  0
 24 26  2  0  0  0  0
 24 40  1  0  0  0  0
 25 41  1  0  0  0  0
 25 42  1  0  0  0  0
 25 43  1  0  0  0  0
 26 27  1  0  0  0  0
 26 44  1  0  0  0  0
 27 45  1  0  0  0  0
M  END
> <PUBCHEM_COMPOUND_CID>
44251387

> <PUBCHEM_CONFORMER_RMSD>
0.8

> <PUBCHEM_CONFORMER_DIVERSEORDER>
1
50
87
84
5
82
39
64
89
79
14
32
91
12
83
11
88
28
67
45
63
74
75
47
6
57
34
62
70
21
49
61
9
7
66
54
20
65
25
73
90
8
41
24
78
33
19
71
26
72
35
15
60
55
3
17
85
18
4
2
43
44
56
53
29
59
76
77
30
31
16
37
58
23
80
27
22
69
40
36
13
42
10
86
51
48
81
38
52
68
46

> <PUBCHEM_MMFF94_PARTIAL_CHARGES>
38
1 -0.57
10 -0.15
11 -0.3
12 -0.14
13 -0.15
14 -0.15
15 0.72
16 0.14
17 0.12
18 -0.15
19 0.16
2 -0.17
20 0.39
21 -0.15
22 0.08
23 0.17
24 -0.15
25 0.14
26 -0.15
27 0.16
28 0.15
29 0.27
3 0.03
30 0.15
31 0.15
32 0.15
36 0.37
37 0.15
38 0.15
39 0.15
4 -0.55
40 0.15
44 0.15
45 0.15
5 -0.62
6 -0.62
8 -0.15
9 -0.09

> <PUBCHEM_EFFECTIVE_ROTOR_COUNT>
5

> <PUBCHEM_PHARMACOPHORE_FEATURES>
9
1 1 acceptor
1 3 cation
1 3 donor
1 4 donor
1 6 acceptor
5 3 7 8 9 11 rings
6 5 17 18 19 20 21 rings
6 6 22 23 24 26 27 rings
6 7 8 10 12 13 14 rings

> <PUBCHEM_HEAVY_ATOM_COUNT>
27

> <PUBCHEM_ATOM_DEF_STEREO_COUNT>
0

> <PUBCHEM_ATOM_UDEF_STEREO_COUNT>
0

> <PUBCHEM_BOND_DEF_STEREO_COUNT>
0

> <PUBCHEM_BOND_UDEF_STEREO_COUNT>
0

> <PUBCHEM_ISOTOPIC_ATOM_COUNT>
0

> <PUBCHEM_COMPONENT_COUNT>
1

> <PUBCHEM_CACTVS_TAUTO_COUNT>
5

> <PUBCHEM_CONFORMER_ID>
02A338FB00000001

> <PUBCHEM_MMFF94_ENERGY>
79.7205

> <PUBCHEM_FEATURE_SELFOVERLAP>
45.763

> <PUBCHEM_SHAPE_FINGERPRINT>
10 15 18187086157153529881
10554248 39 18267006281126747159
10595046 47 18409445886854933867
10835480 77 18411693254008856777
10906281 52 17822307780901299526
11007060 377 18408610241190909251
11991303 11 16558742455788385805
12342043 65 12324777113618347904
125118 31 18334574620485226033
12539765 74 17773317843026624229
13073987 5 18261956254881046699
13167372 99 18335417946283044744
13533116 47 16226318232350784754
14211702 104 9583224063817337493
14347332 77 11311782747821519515
14528608 73 18413672422225743814
14556957 393 16200164213126497089
14790565 3 18410575123592253578
14933364 13 18412263930328602419
15183329 4 18334579057313199373
15348495 7 13118290307917430468
15400415 2 18338233770024694443
15419008 145 18116136806686847016
16989713 51 17415552371001489143
16993089 31 13901901272272952237
18222031 100 9511468840294183038
18608769 82 18337956805138210971
20058555 10 18410572847481678465
20281389 69 18335700516455420857
20511986 3 18260539001314002799
20691028 202 18194679264217985033
21298829 104 18261960742868923484
21424621 283 18187083936397176483
21585482 111 18261391092339492932
21682296 61 8646772222517090857
23081809 10 18261387858075702442
23559900 14 18271234015468548753
23569914 152 16909764579186469885
24771293 8 18264765631486018404
25122255 55 8790884111841947941
2748736 6 18336536162150808733
34797466 226 17775573047726150758
3918712 181 18340762728209908760
4073 2 18186524323470353107
4340502 62 16370719344826173402
44249763 50 17702650194093387690
44317340 157 18131072619455519150
5080951 261 16009030661600840587
5104073 3 18114178601524817571
5109719 28 18339369680930339032
59682541 52 16630535012058527148
6328613 192 18411419480151321905
636775 72 18339077202501169048
6898599 12 18343297081231605783
7970288 3 9439137441922407940

> <PUBCHEM_SHAPE_MULTIPOLES>
523.98
21.64
3.11
1.04
3.54
1
0.33
14.95
0.91
1.15
-0.23
-2.38
0.29
0.34

> <PUBCHEM_SHAPE_SELFOVERLAP>
1162.656

> <PUBCHEM_SHAPE_VOLUME>
279

> <PUBCHEM_COORDINATE_TYPE>
2
5
10

$$$$
