49836386
  -OEChem-03232009333D

 38 40  0     1  0  0  0  0  0999 V2000
    4.6333   -0.3540    0.6334 N   0  0  0  0  0  0  0  0  0  0  0  0
   -1.0949    2.5738    0.3097 N   0  0  0  0  0  0  0  0  0  0  0  0
   -4.9608   -2.8906   -0.1400 N   0  0  0  0  0  0  0  0  0  0  0  0
    1.0884   -0.2812   -0.5067 C   0  0  2  0  0  0  0  0  0  0  0  0
    3.4486   -0.6525   -0.1513 C   0  0  1  0  0  0  0  0  0  0  0  0
    2.1541   -0.3646    0.6031 C   0  0  0  0  0  0  0  0  0  0  0  0
    1.8634    0.0422   -1.8036 C   0  0  0  0  0  0  0  0  0  0  0  0
    3.3176    0.2374   -1.3810 C   0  0  0  0  0  0  0  0  0  0  0  0
   -0.0183    0.6948   -0.1776 C   0  0  0  0  0  0  0  0  0  0  0  0
   -1.4020    0.3921   -0.0412 C   0  0  0  0  0  0  0  0  0  0  0  0
    0.1391    2.0436    0.0439 C   0  0  0  0  0  0  0  0  0  0  0  0
    5.8485   -0.5415   -0.1649 C   0  0  0  0  0  0  0  0  0  0  0  0
    4.6873   -1.1919    1.8353 C   0  0  0  0  0  0  0  0  0  0  0  0
   -2.0550    1.5882    0.2646 C   0  0  0  0  0  0  0  0  0  0  0  0
   -2.1639   -0.7882   -0.1489 C   0  0  0  0  0  0  0  0  0  0  0  0
   -3.4374    1.6630    0.4689 C   0  0  0  0  0  0  0  0  0  0  0  0
   -3.5477   -0.7284    0.0530 C   0  0  0  0  0  0  0  0  0  0  0  0
   -4.1725    0.4795    0.3569 C   0  0  0  0  0  0  0  0  0  0  0  0
   -4.3277   -1.9218   -0.0536 C   0  0  0  0  0  0  0  0  0  0  0  0
    0.6501   -1.2802   -0.6307 H   0  0  0  0  0  0  0  0  0  0  0  0
    3.4483   -1.7051   -0.4718 H   0  0  0  0  0  0  0  0  0  0  0  0
    1.9002   -1.1514    1.3223 H   0  0  0  0  0  0  0  0  0  0  0  0
    2.2305    0.5774    1.1615 H   0  0  0  0  0  0  0  0  0  0  0  0
    1.7939   -0.8134   -2.4871 H   0  0  0  0  0  0  0  0  0  0  0  0
    1.4827    0.9165   -2.3416 H   0  0  0  0  0  0  0  0  0  0  0  0
    3.4890    1.2922   -1.1306 H   0  0  0  0  0  0  0  0  0  0  0  0
    3.9979   -0.0374   -2.1932 H   0  0  0  0  0  0  0  0  0  0  0  0
    1.0161    2.6760    0.0354 H   0  0  0  0  0  0  0  0  0  0  0  0
    3.8619   -0.9701    2.5193 H   0  0  0  0  0  0  0  0  0  0  0  0
    4.6688   -2.2613    1.5957 H   0  0  0  0  0  0  0  0  0  0  0  0
    5.9178   -1.5522   -0.5835 H   0  0  0  0  0  0  0  0  0  0  0  0
    5.9115    0.1847   -0.9815 H   0  0  0  0  0  0  0  0  0  0  0  0
    6.7398   -0.3685    0.4497 H   0  0  0  0  0  0  0  0  0  0  0  0
    5.6030   -0.9875    2.4026 H   0  0  0  0  0  0  0  0  0  0  0  0
   -1.2757    3.5478    0.5099 H   0  0  0  0  0  0  0  0  0  0  0  0
   -1.6808   -1.7328   -0.3857 H   0  0  0  0  0  0  0  0  0  0  0  0
   -3.9246    2.6030    0.7056 H   0  0  0  0  0  0  0  0  0  0  0  0
   -5.2489    0.5199    0.5130 H   0  0  0  0  0  0  0  0  0  0  0  0
  1  5  1  0  0  0  0
  1 12  1  0  0  0  0
  1 13  1  0  0  0  0
  2 11  1  0  0  0  0
  2 14  1  0  0  0  0
  2 35  1  0  0  0  0
  3 19  3  0  0  0  0
  4  6  1  0  0  0  0
  4  7  1  0  0  0  0
  4  9  1  0  0  0  0
  4 20  1  0  0  0  0
  5  6  1  0  0  0  0
  5  8  1  0  0  0  0
  5 21  1  0  0  0  0
  6 22  1  0  0  0  0
  6 23  1  0  0  0  0
  7  8  1  0  0  0  0
  7 24  1  0  0  0  0
  7 25  1  0  0  0  0
  8 26  1  0  0  0  0
  8 27  1  0  0  0  0
  9 10  1  0  0  0  0
  9 11  2  0  0  0  0
 10 14  2  0  0  0  0
 10 15  1  0  0  0  0
 11 28  1  0  0  0  0
 12 31  1  0  0  0  0
 12 32  1  0  0  0  0
 12 33  1  0  0  0  0
 13 29  1  0  0  0  0
 13 30  1  0  0  0  0
 13 34  1  0  0  0  0
 14 16  1  0  0  0  0
 15 17  2  0  0  0  0
 15 36  1  0  0  0  0
 16 18  2  0  0  0  0
 16 37  1  0  0  0  0
 17 18  1  0  0  0  0
 17 19  1  0  0  0  0
 18 38  1  0  0  0  0
M  END
> <PUBCHEM_COMPOUND_CID>
49836386

> <PUBCHEM_CONFORMER_RMSD>
0.6

> <PUBCHEM_CONFORMER_DIVERSEORDER>
1
5
13
8
3
2
9
15
10
7
16
12
6
14
11
4

> <PUBCHEM_MMFF94_PARTIAL_CHARGES>
20
1 -0.81
11 -0.3
12 0.27
13 0.27
14 -0.15
15 -0.15
16 -0.15
17 0.07
18 -0.15
19 0.48
2 0.03
28 0.15
3 -0.56
35 0.27
36 0.15
37 0.15
38 0.15
4 0.18
5 0.27
9 -0.18

> <PUBCHEM_EFFECTIVE_ROTOR_COUNT>
3

> <PUBCHEM_PHARMACOPHORE_FEATURES>
7
1 1 cation
1 2 cation
1 2 donor
1 3 acceptor
5 2 9 10 11 14 rings
5 4 5 6 7 8 rings
6 10 14 15 16 17 18 rings

> <PUBCHEM_HEAVY_ATOM_COUNT>
19

> <PUBCHEM_ATOM_DEF_STEREO_COUNT>
2

> <PUBCHEM_ATOM_UDEF_STEREO_COUNT>
0

> <PUBCHEM_BOND_DEF_STEREO_COUNT>
0

> <PUBCHEM_BOND_UDEF_STEREO_COUNT>
0

> <PUBCHEM_ISOTOPIC_ATOM_COUNT>
0

> <PUBCHEM_COMPONENT_COUNT>
1

> <PUBCHEM_CACTVS_TAUTO_COUNT>
1

> <PUBCHEM_CONFORMER_ID>
02F8716200000001

> <PUBCHEM_MMFF94_ENERGY>
35.4015

> <PUBCHEM_FEATURE_SELFOVERLAP>
35.613

> <PUBCHEM_SHAPE_FINGERPRINT>
10062212 137 18186805751344152761
10319926 262 18057594375106780098
10912923 1 18186804664880944128
11045977 3 18060131033845933088
11046707 91 18410011044146654087
11132069 177 18271251512648315021
11370993 144 16343156718357648671
11578080 2 17895734288291114204
12107183 9 17397539806637350488
12236239 1 17968101893552873316
12553582 1 18340503252176344519
12596602 18 18335415764903901840
12616971 3 17822020786844121397
12839892 36 18340478976705059554
12892183 10 15912784833558196287
13140716 1 18271811246130427657
13214271 11 18060135406001418445
13288520 33 18410857646271803239
13540713 5 18196671785656552257
13583140 156 17913741987420889682
14178342 30 18129958779732167993
14251752 14 17749380461119539327
14787075 74 18334015021223233952
15099037 37 18273494567823929879
15188451 53 18335124398101043826
15375358 24 17774720857500591141
15415430 10 18411699919766289247
17349148 13 17822013094858368162
17862501 102 18186800241054014824
18186145 218 13262402171804767333
18785283 64 17130130125976724544
18927931 339 18342462516950182359
200 152 17167865240155465988
20374829 77 18411136974529945359
20626108 58 18260827137225800804
21065201 7 18200321996255338750
21069387 34 17022908942980236226
21267235 1 18410302427476052359
21728266 224 18334850610851788979
21756936 100 12319445632610380630
22079108 93 14764333972914758862
22646028 1 17967251971011809442
22646028 28 18186804668764500154
22854114 59 16774076254711320588
2297311 6 18202012001720358980
23175994 123 14273749416551907271
23366157 5 18044944712213666269
23402539 116 18409445877737043606
23557571 272 17988086565312756180
23559900 14 18057335980946324974
25147074 1 18265071261179394853
335352 9 18411699894808797597
5104073 3 18271815682799652113
57100710 210 18114175294399531652
573450 72 18334293132607419088
5902787 121 18412548734063554257
59682541 52 14202213038650532907
602551 16 18343863329450981930
633830 44 12324241719252373007
67856867 119 18260834842935622596
7495541 125 18201717371311652840
76465 3 18337389452362866527
7970288 3 18267864063621999071
8863177 126 17682975641134175683
90127 26 15697727999421394136

> <PUBCHEM_SHAPE_MULTIPOLES>
376.07
11.31
2.19
1.15
6.22
0.08
0.08
6.62
-1.89
-3.5
-0.25
1.59
0.15
-1.09

> <PUBCHEM_SHAPE_SELFOVERLAP>
811.699

> <PUBCHEM_SHAPE_VOLUME>
209.8

> <PUBCHEM_COORDINATE_TYPE>
2
5
10

$$$$
