53322638
  -OEChem-03232009333D

 62 66  0     1  0  0  0  0  0999 V2000
    1.4272    1.7962   -1.0873 S   0  0  0  0  0  0  0  0  0  0  0  0
   -3.6446    1.6955   -0.1273 O   0  0  0  0  0  0  0  0  0  0  0  0
    1.6914    3.1970   -1.3221 O   0  0  0  0  0  0  0  0  0  0  0  0
    0.8798    0.9505   -2.1229 O   0  0  0  0  0  0  0  0  0  0  0  0
    0.4498    1.6459    0.3200 N   0  0  1  0  0  0  0  0  0  0  0  0
   -3.7936   -0.8695    0.0775 N   0  0  0  0  0  0  0  0  0  0  0  0
   -6.5961   -1.2619   -0.3112 N   0  0  0  0  0  0  0  0  0  0  0  0
   -0.2985    2.8769    0.7248 C   0  0  1  0  0  0  0  0  0  0  0  0
   -1.6963    0.4110    0.2082 C   0  0  0  0  0  0  0  0  0  0  0  0
   -0.3054    0.4118    0.3716 C   0  0  0  0  0  0  0  0  0  0  0  0
   -2.4040   -0.7957    0.2248 C   0  0  0  0  0  0  0  0  0  0  0  0
   -1.6167    2.9642   -0.0380 C   0  0  0  0  0  0  0  0  0  0  0  0
   -4.6078   -1.4575    1.1456 C   0  0  0  0  0  0  0  0  0  0  0  0
   -4.3375   -0.9985   -1.2802 C   0  0  0  0  0  0  0  0  0  0  0  0
   -2.4264    1.6880    0.0230 C   0  0  0  0  0  0  0  0  0  0  0  0
   -6.0620   -0.9939    1.0295 C   0  0  0  0  0  0  0  0  0  0  0  0
   -5.7998   -0.5487   -1.3176 C   0  0  0  0  0  0  0  0  0  0  0  0
    0.3737   -0.8022    0.5275 C   0  0  0  0  0  0  0  0  0  0  0  0
   -0.4833    2.8974    2.2432 C   0  0  0  0  0  0  0  0  0  0  0  0
   -1.7200   -2.0001    0.3928 C   0  0  0  0  0  0  0  0  0  0  0  0
   -0.3342   -2.0038    0.5425 C   0  0  0  0  0  0  0  0  0  0  0  0
    2.9150    1.0515   -0.5011 C   0  0  0  0  0  0  0  0  0  0  0  0
   -8.0011   -0.8641   -0.3928 C   0  0  0  0  0  0  0  0  0  0  0  0
    0.3934   -3.2941    0.7170 C   0  0  0  0  0  0  0  0  0  0  0  0
    3.3166   -0.1888   -0.9981 C   0  0  0  0  0  0  0  0  0  0  0  0
    3.6877    1.7017    0.4566 C   0  0  0  0  0  0  0  0  0  0  0  0
    4.4985   -0.7950   -0.5419 C   0  0  0  0  0  0  0  0  0  0  0  0
    5.2841   -0.1338    0.4321 C   0  0  0  0  0  0  0  0  0  0  0  0
    4.8647    1.1141    0.9211 C   0  0  0  0  0  0  0  0  0  0  0  0
    4.9177   -2.0429   -1.0309 C   0  0  0  0  0  0  0  0  0  0  0  0
    6.4659   -0.7402    0.8884 C   0  0  0  0  0  0  0  0  0  0  0  0
    6.0947   -2.6307   -0.5663 C   0  0  0  0  0  0  0  0  0  0  0  0
    6.8673   -1.9806    0.3915 C   0  0  0  0  0  0  0  0  0  0  0  0
    0.2960    3.7686    0.4984 H   0  0  0  0  0  0  0  0  0  0  0  0
   -1.4298    3.1741   -1.0979 H   0  0  0  0  0  0  0  0  0  0  0  0
   -2.2259    3.7810    0.3654 H   0  0  0  0  0  0  0  0  0  0  0  0
   -3.7633   -0.3900   -1.9898 H   0  0  0  0  0  0  0  0  0  0  0  0
   -4.2555   -2.0432   -1.6069 H   0  0  0  0  0  0  0  0  0  0  0  0
   -4.5617   -2.5525    1.0908 H   0  0  0  0  0  0  0  0  0  0  0  0
   -4.2211   -1.1570    2.1272 H   0  0  0  0  0  0  0  0  0  0  0  0
   -6.6531   -1.5281    1.7834 H   0  0  0  0  0  0  0  0  0  0  0  0
   -6.1247    0.0774    1.2645 H   0  0  0  0  0  0  0  0  0  0  0  0
   -5.8608    0.5363   -1.1624 H   0  0  0  0  0  0  0  0  0  0  0  0
   -6.1939   -0.7547   -2.3203 H   0  0  0  0  0  0  0  0  0  0  0  0
    1.4404   -0.8262    0.7098 H   0  0  0  0  0  0  0  0  0  0  0  0
    0.4870    2.8355    2.7484 H   0  0  0  0  0  0  0  0  0  0  0  0
   -0.9695    3.8263    2.5594 H   0  0  0  0  0  0  0  0  0  0  0  0
   -1.0934    2.0626    2.6029 H   0  0  0  0  0  0  0  0  0  0  0  0
   -2.2588   -2.9453    0.3957 H   0  0  0  0  0  0  0  0  0  0  0  0
   -8.6013   -1.4231    0.3336 H   0  0  0  0  0  0  0  0  0  0  0  0
   -8.1416    0.2066   -0.2053 H   0  0  0  0  0  0  0  0  0  0  0  0
   -8.4094   -1.0973   -1.3825 H   0  0  0  0  0  0  0  0  0  0  0  0
   -0.2468   -4.0523    1.1806 H   0  0  0  0  0  0  0  0  0  0  0  0
    1.2651   -3.1697    1.3686 H   0  0  0  0  0  0  0  0  0  0  0  0
    0.7316   -3.6682   -0.2544 H   0  0  0  0  0  0  0  0  0  0  0  0
    2.7180   -0.7010   -1.7482 H   0  0  0  0  0  0  0  0  0  0  0  0
    3.3859    2.6666    0.8552 H   0  0  0  0  0  0  0  0  0  0  0  0
    5.4525    1.6400    1.6706 H   0  0  0  0  0  0  0  0  0  0  0  0
    4.3294   -2.5697   -1.7794 H   0  0  0  0  0  0  0  0  0  0  0  0
    7.0853   -0.2501    1.6367 H   0  0  0  0  0  0  0  0  0  0  0  0
    6.4076   -3.5963   -0.9526 H   0  0  0  0  0  0  0  0  0  0  0  0
    7.7834   -2.4387    0.7528 H   0  0  0  0  0  0  0  0  0  0  0  0
  1  3  2  0  0  0  0
  1  4  2  0  0  0  0
  1  5  1  0  0  0  0
  1 22  1  0  0  0  0
  2 15  2  0  0  0  0
  5  8  1  0  0  0  0
  5 10  1  0  0  0  0
  6 11  1  0  0  0  0
  6 13  1  0  0  0  0
  6 14  1  0  0  0  0
  7 16  1  0  0  0  0
  7 17  1  0  0  0  0
  7 23  1  0  0  0  0
  8 12  1  0  0  0  0
  8 19  1  0  0  0  0
  8 34  1  0  0  0  0
  9 10  1  0  0  0  0
  9 11  2  0  0  0  0
  9 15  1  0  0  0  0
 10 18  2  0  0  0  0
 11 20  1  0  0  0  0
 12 15  1  0  0  0  0
 12 35  1  0  0  0  0
 12 36  1  0  0  0  0
 13 16  1  0  0  0  0
 13 39  1  0  0  0  0
 13 40  1  0  0  0  0
 14 17  1  0  0  0  0
 14 37  1  0  0  0  0
 14 38  1  0  0  0  0
 16 41  1  0  0  0  0
 16 42  1  0  0  0  0
 17 43  1  0  0  0  0
 17 44  1  0  0  0  0
 18 21  1  0  0  0  0
 18 45  1  0  0  0  0
 19 46  1  0  0  0  0
 19 47  1  0  0  0  0
 19 48  1  0  0  0  0
 20 21  2  0  0  0  0
 20 49  1  0  0  0  0
 21 24  1  0  0  0  0
 22 25  2  0  0  0  0
 22 26  1  0  0  0  0
 23 50  1  0  0  0  0
 23 51  1  0  0  0  0
 23 52  1  0  0  0  0
 24 53  1  0  0  0  0
 24 54  1  0  0  0  0
 24 55  1  0  0  0  0
 25 27  1  0  0  0  0
 25 56  1  0  0  0  0
 26 29  2  0  0  0  0
 26 57  1  0  0  0  0
 27 28  1  0  0  0  0
 27 30  2  0  0  0  0
 28 29  1  0  0  0  0
 28 31  2  0  0  0  0
 29 58  1  0  0  0  0
 30 32  1  0  0  0  0
 30 59  1  0  0  0  0
 31 33  1  0  0  0  0
 31 60  1  0  0  0  0
 32 33  2  0  0  0  0
 32 61  1  0  0  0  0
 33 62  1  0  0  0  0
M  END
> <PUBCHEM_COMPOUND_CID>
53322638

> <PUBCHEM_CONFORMER_RMSD>
0.8

> <PUBCHEM_CONFORMER_DIVERSEORDER>
1
49
6
30
43
21
47
15
40
11
33
36
46
39
41
35
51
18
38
52
4
45
34
3
20
19
37
31
16
50
26
44
23
10
48
17
25
42
24
22
9
53
29
14
8
28
12
7
32
13
5
27
2

> <PUBCHEM_MMFF94_PARTIAL_CHARGES>
39
1 1.45
10 0.2
11 0.1
12 0.06
13 0.37
14 0.37
15 0.42
16 0.27
17 0.27
18 -0.15
2 -0.57
20 -0.15
21 -0.14
22 -0.01
23 0.27
24 0.14
25 -0.15
26 -0.15
29 -0.15
3 -0.65
30 -0.15
31 -0.15
32 -0.15
33 -0.15
4 -0.65
45 0.15
49 0.15
5 -0.69
56 0.15
57 0.15
58 0.15
59 0.15
6 -0.84
60 0.15
61 0.15
62 0.15
7 -0.81
8 0.36
9 0.09

> <PUBCHEM_EFFECTIVE_ROTOR_COUNT>
4.8

> <PUBCHEM_PHARMACOPHORE_FEATURES>
10
1 2 acceptor
1 3 acceptor
1 4 acceptor
1 6 cation
1 7 cation
6 22 25 26 27 28 29 rings
6 27 28 30 31 32 33 rings
6 5 8 9 10 12 15 rings
6 6 7 13 14 16 17 rings
6 9 10 11 18 20 21 rings

> <PUBCHEM_HEAVY_ATOM_COUNT>
33

> <PUBCHEM_ATOM_DEF_STEREO_COUNT>
0

> <PUBCHEM_ATOM_UDEF_STEREO_COUNT>
1

> <PUBCHEM_BOND_DEF_STEREO_COUNT>
0

> <PUBCHEM_BOND_UDEF_STEREO_COUNT>
0

> <PUBCHEM_ISOTOPIC_ATOM_COUNT>
0

> <PUBCHEM_COMPONENT_COUNT>
1

> <PUBCHEM_CACTVS_TAUTO_COUNT>
9

> <PUBCHEM_CONFORMER_ID>
032DA38E00000001

> <PUBCHEM_MMFF94_ENERGY>
116.0568

> <PUBCHEM_FEATURE_SELFOVERLAP>
50.818

> <PUBCHEM_SHAPE_FINGERPRINT>
10258939 38 12966864420301543603
10693767 8 18129082593783399927
11578080 2 16517353393993280151
11646440 116 18412552023850208907
11828532 37 18265054811460095027
12107698 1 18343019969946896670
12166972 35 17822296798759432588
12422481 6 18057908890733882307
12760667 363 18413390925631635467
12788726 201 18269855214606984192
13533116 47 18342457071485376184
13811026 1 18410285904515039255
14068700 675 18412547595944758740
14294032 229 17460306652059967701
14347332 77 18342175505976898114
14725015 67 18410849945923131490
15131766 46 15408896358825332434
15183329 4 16805319981220834319
15420108 30 17547298804588553664
15927050 60 17761776165430872612
17349148 13 18340778095464879508
20028762 73 18342177756334539918
20775438 99 17335588270410430367
21279426 13 18336259068478544661
21304304 249 18409167710423675814
21682296 61 18411989031052771715
21781051 124 17532107123337508203
21792934 111 18272365361182867625
22223350 30 18051130590648894403
23536364 44 18262788584893071261
23559900 14 18266179620550505356
23569943 247 18271810060524970179
24771750 20 17322683332267963629
24893992 56 18113619019880738707
3004659 81 18113338635197453894
3178227 256 18337684126217287491
3380486 77 18264227943828280620
3383291 50 18334294275280574546
340366 18 17531812488016142702
3633792 109 18187367636198770316
392239 28 18201729409556526552
4112364 45 12679169561803795139
463206 1 18200310047250795614
484989 97 18042413589697511195
5104073 3 18059575746467765008
57527295 17 17555173911083669205
57527585 103 17607566524198633954
58260988 393 15051744066105649538
59755656 215 18261109656075119899
6138700 20 18334857199337090643

> <PUBCHEM_SHAPE_MULTIPOLES>
650.42
16.7
3.55
1.36
5.3
1.25
0.07
-12.41
0.83
-1.4
-0.51
0.13
0.45
0.17

> <PUBCHEM_SHAPE_SELFOVERLAP>
1410.694

> <PUBCHEM_SHAPE_VOLUME>
356.8

> <PUBCHEM_COORDINATE_TYPE>
2
5
10

$$$$
