16038374
  -OEChem-03232009333D

 41 43  0     0  0  0  0  0  0999 V2000
    7.0649   -3.0406   -0.0207 Cl  0  0  0  0  0  0  0  0  0  0  0  0
    1.6839    0.8568    0.0122 O   0  0  0  0  0  0  0  0  0  0  0  0
   -4.1316   -3.1561    0.0212 O   0  0  0  0  0  0  0  0  0  0  0  0
   -5.7157    1.3464   -0.0376 O   0  0  0  0  0  0  0  0  0  0  0  0
   -1.2596    2.8098    0.0066 O   0  0  0  0  0  0  0  0  0  0  0  0
   -0.9920    0.4789    0.0302 N   0  0  0  0  0  0  0  0  0  0  0  0
    2.9714    1.2823    0.0031 C   0  0  0  0  0  0  0  0  0  0  0  0
   -2.3281    0.0087    0.0173 C   0  0  0  0  0  0  0  0  0  0  0  0
    0.9114    1.9746    0.0155 C   0  0  0  0  0  0  0  0  0  0  0  0
    3.9632    0.2349   -0.0025 C   0  0  0  0  0  0  0  0  0  0  0  0
    3.0371    2.6514    0.0007 C   0  0  0  0  0  0  0  0  0  0  0  0
    1.6963    3.1042    0.0086 C   0  0  0  0  0  0  0  0  0  0  0  0
   -0.5018    1.8070    0.0249 C   0  0  0  0  0  0  0  0  0  0  0  0
   -3.3666    0.9236   -0.0038 C   0  0  0  0  0  0  0  0  0  0  0  0
   -2.5649   -1.3552    0.0258 C   0  0  0  0  0  0  0  0  0  0  0  0
   -3.8806   -1.8184    0.0128 C   0  0  0  0  0  0  0  0  0  0  0  0
   -4.6823    0.4605   -0.0168 C   0  0  0  0  0  0  0  0  0  0  0  0
   -4.9394   -0.9104   -0.0086 C   0  0  0  0  0  0  0  0  0  0  0  0
    5.3197    0.5590   -0.0127 C   0  0  0  0  0  0  0  0  0  0  0  0
    3.5655   -1.1021    0.0021 C   0  0  0  0  0  0  0  0  0  0  0  0
    6.2787   -0.4538   -0.0184 C   0  0  0  0  0  0  0  0  0  0  0  0
    4.5245   -2.1150   -0.0035 C   0  0  0  0  0  0  0  0  0  0  0  0
    5.8812   -1.7910   -0.0137 C   0  0  0  0  0  0  0  0  0  0  0  0
   -5.4999   -3.5601    0.0071 C   0  0  0  0  0  0  0  0  0  0  0  0
   -7.0354    0.8043   -0.0500 C   0  0  0  0  0  0  0  0  0  0  0  0
    3.9266    3.2653   -0.0062 H   0  0  0  0  0  0  0  0  0  0  0  0
    1.3513    4.1285    0.0093 H   0  0  0  0  0  0  0  0  0  0  0  0
   -0.2861   -0.2552    0.0416 H   0  0  0  0  0  0  0  0  0  0  0  0
   -3.2425    1.9962   -0.0113 H   0  0  0  0  0  0  0  0  0  0  0  0
   -1.7430   -2.0662    0.0423 H   0  0  0  0  0  0  0  0  0  0  0  0
   -5.9579   -1.2689   -0.0186 H   0  0  0  0  0  0  0  0  0  0  0  0
    5.6610    1.5908   -0.0166 H   0  0  0  0  0  0  0  0  0  0  0  0
    2.5186   -1.3948    0.0100 H   0  0  0  0  0  0  0  0  0  0  0  0
    7.3324   -0.1868   -0.0264 H   0  0  0  0  0  0  0  0  0  0  0  0
    4.2005   -3.1527    0.0002 H   0  0  0  0  0  0  0  0  0  0  0  0
   -6.0047   -3.2471   -0.9133 H   0  0  0  0  0  0  0  0  0  0  0  0
   -6.0281   -3.2313    0.9087 H   0  0  0  0  0  0  0  0  0  0  0  0
   -5.5111   -4.6551    0.0164 H   0  0  0  0  0  0  0  0  0  0  0  0
   -7.2254    0.2230   -0.9588 H   0  0  0  0  0  0  0  0  0  0  0  0
   -7.7298    1.6510   -0.0661 H   0  0  0  0  0  0  0  0  0  0  0  0
   -7.2489    0.2384    0.8633 H   0  0  0  0  0  0  0  0  0  0  0  0
  1 23  1  0  0  0  0
  2  7  1  0  0  0  0
  2  9  1  0  0  0  0
  3 16  1  0  0  0  0
  3 24  1  0  0  0  0
  4 17  1  0  0  0  0
  4 25  1  0  0  0  0
  5 13  2  0  0  0  0
  6  8  1  0  0  0  0
  6 13  1  0  0  0  0
  6 28  1  0  0  0  0
  7 10  1  0  0  0  0
  7 11  2  0  0  0  0
  8 14  2  0  0  0  0
  8 15  1  0  0  0  0
  9 12  2  0  0  0  0
  9 13  1  0  0  0  0
 10 19  2  0  0  0  0
 10 20  1  0  0  0  0
 11 12  1  0  0  0  0
 11 26  1  0  0  0  0
 12 27  1  0  0  0  0
 14 17  1  0  0  0  0
 14 29  1  0  0  0  0
 15 16  2  0  0  0  0
 15 30  1  0  0  0  0
 16 18  1  0  0  0  0
 17 18  2  0  0  0  0
 18 31  1  0  0  0  0
 19 21  1  0  0  0  0
 19 32  1  0  0  0  0
 20 22  2  0  0  0  0
 20 33  1  0  0  0  0
 21 23  2  0  0  0  0
 21 34  1  0  0  0  0
 22 23  1  0  0  0  0
 22 35  1  0  0  0  0
 24 36  1  0  0  0  0
 24 37  1  0  0  0  0
 24 38  1  0  0  0  0
 25 39  1  0  0  0  0
 25 40  1  0  0  0  0
 25 41  1  0  0  0  0
M  END
> <PUBCHEM_COMPOUND_CID>
16038374

> <PUBCHEM_CONFORMER_RMSD>
0.8

> <PUBCHEM_CONFORMER_DIVERSEORDER>
1
17
6
24
19
27
10
5
18
13
28
20
25
2
14
11
9
12
29
26
3
16
4
15
21
23
8
7
22

> <PUBCHEM_MMFF94_PARTIAL_CHARGES>
35
1 -0.18
10 0.05
11 -0.15
12 -0.15
13 0.71
14 -0.15
15 -0.15
16 0.08
17 0.08
18 -0.15
19 -0.15
2 -0.28
20 -0.15
21 -0.15
22 -0.15
23 0.18
24 0.28
25 0.28
26 0.15
27 0.15
28 0.37
29 0.15
3 -0.36
30 0.15
31 0.15
32 0.15
33 0.15
34 0.15
35 0.15
4 -0.36
5 -0.57
6 -0.55
7 0.09
8 0.12
9 0.05

> <PUBCHEM_EFFECTIVE_ROTOR_COUNT>
6

> <PUBCHEM_PHARMACOPHORE_FEATURES>
8
1 2 acceptor
1 3 acceptor
1 4 acceptor
1 5 acceptor
1 6 donor
5 2 7 9 11 12 rings
6 10 19 20 21 22 23 rings
6 8 14 15 16 17 18 rings

> <PUBCHEM_HEAVY_ATOM_COUNT>
25

> <PUBCHEM_ATOM_DEF_STEREO_COUNT>
0

> <PUBCHEM_ATOM_UDEF_STEREO_COUNT>
0

> <PUBCHEM_BOND_DEF_STEREO_COUNT>
0

> <PUBCHEM_BOND_UDEF_STEREO_COUNT>
0

> <PUBCHEM_ISOTOPIC_ATOM_COUNT>
0

> <PUBCHEM_COMPONENT_COUNT>
1

> <PUBCHEM_CACTVS_TAUTO_COUNT>
2

> <PUBCHEM_CONFORMER_ID>
00F4B9E600000001

> <PUBCHEM_MMFF94_ENERGY>
79.5628

> <PUBCHEM_FEATURE_SELFOVERLAP>
40.598

> <PUBCHEM_SHAPE_FINGERPRINT>
10622 236 17700111481975175167
11197282 1 18337956804331381306
11405975 8 18341335586763027857
11524674 6 17274818039319918815
117089 54 18263935508201337851
11796584 16 18343869926166879117
12107183 9 18341340994190222313
12592606 108 18412823582343460343
12643181 29 18336259068098833643
12760667 363 18342735174459332253
13073987 5 18269838790915684625
13402501 40 18410013217463890110
13533116 47 18195809802382766307
13690498 29 17968658207550142924
13955234 65 17983856971745890608
14117953 113 18271526381791440159
14251751 18 18411420635022517486
14347332 77 18268991072035871383
14420673 8 18409732837730135707
14866123 147 18268997484068766153
15183329 4 18408037399484796913
15196674 1 18338516464486897225
15320467 1 18266741277423917158
15352361 1 18410856551572100912
15361156 5 18041571320233962349
15927050 60 17838897385084154012
17492 89 18266458904956608635
17857418 61 18412545405432173424
20028762 73 18339922611706902714
20403669 9 18341898446421487014
20567600 70 18410854369897617186
21065198 57 18339642373231893097
21267235 1 18339928100499987844
23522609 53 18122378785210382884
23559900 14 18340198678496439393
3004659 81 18186520978149024232
335352 9 18410573968736837165
3421961 26 18340766035545216200
4073 2 18115591589819323856
4214541 1 18410574033092715937
44062 13 18409729582287025479
46194498 28 17458065993227462988
465052 167 18272092695394798220
5081480 168 15502376772393113933
5104073 3 18058738025786273289
54583773 228 18335991901188163518
559249 180 18341331098506223097
6138700 20 18337110068919191019
7970288 3 18338233757250659762
9709674 26 18117843419887658099
999808 66 17968110711426642361

> <PUBCHEM_SHAPE_MULTIPOLES>
487.9
18.78
3.98
0.6
0.67
1.34
0
13.78
0.23
0.16
-0.01
0.05
0.01
0.07

> <PUBCHEM_SHAPE_SELFOVERLAP>
1054.43

> <PUBCHEM_SHAPE_VOLUME>
270.5

> <PUBCHEM_COORDINATE_TYPE>
2
5
10

$$$$
