51003551
  -OEChem-03232009333D

 59 63  0     1  0  0  0  0  0999 V2000
    1.4447    1.6451   -1.1299 S   0  0  0  0  0  0  0  0  0  0  0  0
   -3.6265    1.5984   -0.1740 O   0  0  0  0  0  0  0  0  0  0  0  0
    1.7136    3.0344   -1.4208 O   0  0  0  0  0  0  0  0  0  0  0  0
    0.8950    0.7603   -2.1311 O   0  0  0  0  0  0  0  0  0  0  0  0
    0.4666    1.5544    0.2819 N   0  0  1  0  0  0  0  0  0  0  0  0
   -3.7842   -0.9561    0.1361 N   0  0  0  0  0  0  0  0  0  0  0  0
   -6.5873   -1.3563   -0.2397 N   0  0  0  0  0  0  0  0  0  0  0  0
   -0.2780    2.8029    0.6369 C   0  0  1  0  0  0  0  0  0  0  0  0
   -1.6831    0.3228    0.2175 C   0  0  0  0  0  0  0  0  0  0  0  0
   -0.2924    0.3258    0.3827 C   0  0  0  0  0  0  0  0  0  0  0  0
   -1.5953    2.8640   -0.1293 C   0  0  0  0  0  0  0  0  0  0  0  0
   -2.3945   -0.8801    0.2819 C   0  0  0  0  0  0  0  0  0  0  0  0
   -4.3270   -1.1385   -1.2160 C   0  0  0  0  0  0  0  0  0  0  0  0
   -4.6011   -1.4981    1.2262 C   0  0  0  0  0  0  0  0  0  0  0  0
   -6.0540   -1.0356    1.0898 C   0  0  0  0  0  0  0  0  0  0  0  0
   -5.7880   -0.6866   -1.2732 C   0  0  0  0  0  0  0  0  0  0  0  0
   -2.4088    1.5935   -0.0201 C   0  0  0  0  0  0  0  0  0  0  0  0
   -0.4635    2.8844    2.1531 C   0  0  0  0  0  0  0  0  0  0  0  0
    0.3827   -0.8830    0.5884 C   0  0  0  0  0  0  0  0  0  0  0  0
   -1.7146   -2.0789    0.4995 C   0  0  0  0  0  0  0  0  0  0  0  0
   -0.3291   -2.0809    0.6510 C   0  0  0  0  0  0  0  0  0  0  0  0
    2.9302    0.9197   -0.5141 C   0  0  0  0  0  0  0  0  0  0  0  0
   -7.9911   -0.9584   -0.3390 C   0  0  0  0  0  0  0  0  0  0  0  0
    3.3279   -0.3407   -0.9610 C   0  0  0  0  0  0  0  0  0  0  0  0
    3.7049    1.6053    0.4169 C   0  0  0  0  0  0  0  0  0  0  0  0
    4.5078   -0.9319   -0.4806 C   0  0  0  0  0  0  0  0  0  0  0  0
    5.2955   -0.2347    0.4662 C   0  0  0  0  0  0  0  0  0  0  0  0
    4.8801    1.0331    0.9047 C   0  0  0  0  0  0  0  0  0  0  0  0
    4.9232   -2.1997   -0.9192 C   0  0  0  0  0  0  0  0  0  0  0  0
    6.4753   -0.8260    0.9466 C   0  0  0  0  0  0  0  0  0  0  0  0
    6.0982   -2.7720   -0.4313 C   0  0  0  0  0  0  0  0  0  0  0  0
    6.8729   -2.0865    0.4998 C   0  0  0  0  0  0  0  0  0  0  0  0
    0.3196    3.6829    0.3756 H   0  0  0  0  0  0  0  0  0  0  0  0
   -2.2026    3.6975    0.2416 H   0  0  0  0  0  0  0  0  0  0  0  0
   -1.4073    3.0323   -1.1964 H   0  0  0  0  0  0  0  0  0  0  0  0
   -3.7504   -0.5608   -1.9489 H   0  0  0  0  0  0  0  0  0  0  0  0
   -4.2475   -2.1958   -1.4999 H   0  0  0  0  0  0  0  0  0  0  0  0
   -4.5578   -2.5946    1.2158 H   0  0  0  0  0  0  0  0  0  0  0  0
   -4.2147   -1.1591    2.1953 H   0  0  0  0  0  0  0  0  0  0  0  0
   -6.6473   -1.5372    1.8639 H   0  0  0  0  0  0  0  0  0  0  0  0
   -6.1139    0.0445    1.2811 H   0  0  0  0  0  0  0  0  0  0  0  0
   -5.8462    0.4040   -1.1621 H   0  0  0  0  0  0  0  0  0  0  0  0
   -6.1816   -0.9320   -2.2672 H   0  0  0  0  0  0  0  0  0  0  0  0
    0.5063    2.8393    2.6611 H   0  0  0  0  0  0  0  0  0  0  0  0
   -0.9465    3.8270    2.4318 H   0  0  0  0  0  0  0  0  0  0  0  0
   -1.0768    2.0668    2.5453 H   0  0  0  0  0  0  0  0  0  0  0  0
    1.4477   -0.9165    0.7764 H   0  0  0  0  0  0  0  0  0  0  0  0
   -2.2447   -3.0270    0.5474 H   0  0  0  0  0  0  0  0  0  0  0  0
    0.1959   -3.0148    0.8300 H   0  0  0  0  0  0  0  0  0  0  0  0
   -8.5936   -1.4859    0.4088 H   0  0  0  0  0  0  0  0  0  0  0  0
   -8.1289    0.1194   -0.1952 H   0  0  0  0  0  0  0  0  0  0  0  0
   -8.3990   -1.2305   -1.3188 H   0  0  0  0  0  0  0  0  0  0  0  0
    2.7279   -0.8805   -1.6904 H   0  0  0  0  0  0  0  0  0  0  0  0
    3.4062    2.5863    0.7765 H   0  0  0  0  0  0  0  0  0  0  0  0
    5.4695    1.5867    1.6327 H   0  0  0  0  0  0  0  0  0  0  0  0
    4.3334   -2.7541   -1.6463 H   0  0  0  0  0  0  0  0  0  0  0  0
    7.0963   -0.3083    1.6748 H   0  0  0  0  0  0  0  0  0  0  0  0
    6.4082   -3.7533   -0.7786 H   0  0  0  0  0  0  0  0  0  0  0  0
    7.7876   -2.5327    0.8793 H   0  0  0  0  0  0  0  0  0  0  0  0
  1  3  2  0  0  0  0
  1  4  2  0  0  0  0
  1  5  1  0  0  0  0
  1 22  1  0  0  0  0
  2 17  2  0  0  0  0
  5  8  1  0  0  0  0
  5 10  1  0  0  0  0
  6 12  1  0  0  0  0
  6 13  1  0  0  0  0
  6 14  1  0  0  0  0
  7 15  1  0  0  0  0
  7 16  1  0  0  0  0
  7 23  1  0  0  0  0
  8 11  1  0  0  0  0
  8 18  1  0  0  0  0
  8 33  1  0  0  0  0
  9 10  1  0  0  0  0
  9 12  2  0  0  0  0
  9 17  1  0  0  0  0
 10 19  2  0  0  0  0
 11 17  1  0  0  0  0
 11 34  1  0  0  0  0
 11 35  1  0  0  0  0
 12 20  1  0  0  0  0
 13 16  1  0  0  0  0
 13 36  1  0  0  0  0
 13 37  1  0  0  0  0
 14 15  1  0  0  0  0
 14 38  1  0  0  0  0
 14 39  1  0  0  0  0
 15 40  1  0  0  0  0
 15 41  1  0  0  0  0
 16 42  1  0  0  0  0
 16 43  1  0  0  0  0
 18 44  1  0  0  0  0
 18 45  1  0  0  0  0
 18 46  1  0  0  0  0
 19 21  1  0  0  0  0
 19 47  1  0  0  0  0
 20 21  2  0  0  0  0
 20 48  1  0  0  0  0
 21 49  1  0  0  0  0
 22 24  2  0  0  0  0
 22 25  1  0  0  0  0
 23 50  1  0  0  0  0
 23 51  1  0  0  0  0
 23 52  1  0  0  0  0
 24 26  1  0  0  0  0
 24 53  1  0  0  0  0
 25 28  2  0  0  0  0
 25 54  1  0  0  0  0
 26 27  1  0  0  0  0
 26 29  2  0  0  0  0
 27 28  1  0  0  0  0
 27 30  2  0  0  0  0
 28 55  1  0  0  0  0
 29 31  1  0  0  0  0
 29 56  1  0  0  0  0
 30 32  1  0  0  0  0
 30 57  1  0  0  0  0
 31 32  2  0  0  0  0
 31 58  1  0  0  0  0
 32 59  1  0  0  0  0
M  END
> <PUBCHEM_COMPOUND_CID>
51003551

> <PUBCHEM_CONFORMER_RMSD>
0.8

> <PUBCHEM_CONFORMER_DIVERSEORDER>
1
40
43
17
25
6
37
28
33
16
34
31
15
49
13
36
46
42
48
44
4
39
3
35
11
20
29
22
18
10
41
27
45
23
21
2
12
24
19
38
14
9
30
47
7
26
8
32
5

> <PUBCHEM_MMFF94_PARTIAL_CHARGES>
39
1 1.45
10 0.2
11 0.06
12 0.1
13 0.37
14 0.37
15 0.27
16 0.27
17 0.42
19 -0.15
2 -0.57
20 -0.15
21 -0.15
22 -0.01
23 0.27
24 -0.15
25 -0.15
28 -0.15
29 -0.15
3 -0.65
30 -0.15
31 -0.15
32 -0.15
4 -0.65
47 0.15
48 0.15
49 0.15
5 -0.69
53 0.15
54 0.15
55 0.15
56 0.15
57 0.15
58 0.15
59 0.15
6 -0.84
7 -0.81
8 0.36
9 0.09

> <PUBCHEM_EFFECTIVE_ROTOR_COUNT>
4.8

> <PUBCHEM_PHARMACOPHORE_FEATURES>
10
1 2 acceptor
1 3 acceptor
1 4 acceptor
1 6 cation
1 7 cation
6 22 24 25 26 27 28 rings
6 26 27 29 30 31 32 rings
6 5 8 9 10 11 17 rings
6 6 7 13 14 15 16 rings
6 9 10 12 19 20 21 rings

> <PUBCHEM_HEAVY_ATOM_COUNT>
32

> <PUBCHEM_ATOM_DEF_STEREO_COUNT>
0

> <PUBCHEM_ATOM_UDEF_STEREO_COUNT>
1

> <PUBCHEM_BOND_DEF_STEREO_COUNT>
0

> <PUBCHEM_BOND_UDEF_STEREO_COUNT>
0

> <PUBCHEM_ISOTOPIC_ATOM_COUNT>
0

> <PUBCHEM_COMPONENT_COUNT>
1

> <PUBCHEM_CACTVS_TAUTO_COUNT>
2

> <PUBCHEM_CONFORMER_ID>
030A409F00000001

> <PUBCHEM_MMFF94_ENERGY>
113.7975

> <PUBCHEM_FEATURE_SELFOVERLAP>
50.818

> <PUBCHEM_SHAPE_FINGERPRINT>
10 15 12031785868391289439
10165383 225 10809337841524239836
10693767 8 18127957797714826807
11135926 11 18046908461882862124
11456790 92 18340219557233896435
11796584 16 17677046970481454451
11828532 37 18263648531714100603
12107698 1 18413388714082420974
12166972 35 17821732749315437012
12422481 6 17987255368728603347
12760667 363 18412546500706843291
13533116 47 18341331175826015096
13811026 1 18411129221422775805
13862211 1 18410856581547422195
14068700 675 18411421691774610292
14294032 229 17387685008556925749
14347332 77 18341331081046824650
14725015 67 18410568470904281298
14856354 85 15068624907694171083
15131766 46 15552449696401450456
15183329 4 16732699437266499255
15188451 53 18334853892813354058
15420108 30 17616818730021316240
17349148 13 18411709785285108284
1813 80 17312824879638126884
20028762 73 18341896281431760198
21267235 1 18335143089455616722
21279426 13 18335414647864394533
21682296 61 18411143506637424763
21781051 124 17386021606161326571
21792934 111 18343860005272597041
22223350 30 18050850215215505515
23536364 44 18261381210014708277
23559900 14 18262798596023818832
23569943 247 18270965639916192387
24771750 20 17249782408490151501
24893992 56 17967814981965692003
3004659 81 18040718091132329526
3383291 50 18333449854502991611
4112364 45 12750945680854495411
463206 1 18272087265908114606
5104073 3 18131069291051134904
57527295 17 17698165398307541005
57527585 103 17607847994890939802
58260988 393 15267072418978503386
59755656 215 18187080641988851275
6523845 18 15051744084298167004
8988823 20 17704071845580056512

> <PUBCHEM_SHAPE_MULTIPOLES>
629.84
17.23
3.29
1.37
5.06
1.59
0.09
-14.56
-0.16
-1.45
-0.29
0.15
0.42
0.13

> <PUBCHEM_SHAPE_SELFOVERLAP>
1368.609

> <PUBCHEM_SHAPE_VOLUME>
344.1

> <PUBCHEM_COORDINATE_TYPE>
2
5
10

$$$$
