46884898
  -OEChem-03232009313D

 71 74  0     1  0  0  0  0  0999 V2000
    3.3308   -1.5269    2.9136 Cl  0  0  0  0  0  0  0  0  0  0  0  0
    4.7351    2.1940   -1.1232 F   0  0  0  0  0  0  0  0  0  0  0  0
    3.1516    1.0780   -2.1107 F   0  0  0  0  0  0  0  0  0  0  0  0
    3.4024    3.1927   -2.5212 F   0  0  0  0  0  0  0  0  0  0  0  0
    2.3091   -4.4174    1.1346 O   0  0  0  0  0  0  0  0  0  0  0  0
   -3.3822    0.5211    1.0639 O   0  0  0  0  0  0  0  0  0  0  0  0
   -1.5760    3.4607   -0.9039 O   0  0  0  0  0  0  0  0  0  0  0  0
   -4.6120   -1.4389   -0.6202 N   0  0  1  0  0  0  0  0  0  0  0  0
    0.7626   -2.7445    0.6084 N   0  0  0  0  0  0  0  0  0  0  0  0
   -5.1649    1.6768    0.1186 N   0  0  0  0  0  0  0  0  0  0  0  0
   -2.0023    2.8776    1.3010 N   0  0  0  0  0  0  0  0  0  0  0  0
   -1.7776   -2.2093   -0.6758 C   0  0  0  0  0  0  0  0  0  0  0  0
   -2.7033   -2.2865   -1.8873 C   0  0  0  0  0  0  0  0  0  0  0  0
   -4.1466   -2.5311   -1.4620 C   0  0  0  0  0  0  0  0  0  0  0  0
   -5.8710    0.5432   -0.4235 C   0  0  1  0  0  0  0  0  0  0  0  0
   -1.3934   -3.6161   -0.1902 C   0  0  0  0  0  0  0  0  0  0  0  0
   -0.5165   -1.3933   -1.0027 C   0  0  0  0  0  0  0  0  0  0  0  0
   -5.0097   -0.2621   -1.3979 C   0  0  0  0  0  0  0  0  0  0  0  0
   -5.7930   -1.8000    0.1617 C   0  0  0  0  0  0  0  0  0  0  0  0
   -6.2705   -0.4492    0.6713 C   0  0  0  0  0  0  0  0  0  0  0  0
    0.4488   -1.3755    0.1802 C   0  0  0  0  0  0  0  0  0  0  0  0
   -0.4018   -3.5521    0.9700 C   0  0  0  0  0  0  0  0  0  0  0  0
    2.0445   -3.2847    0.7343 C   0  0  0  0  0  0  0  0  0  0  0  0
   -3.9691    1.5732    0.8235 C   0  0  0  0  0  0  0  0  0  0  0  0
    3.1891   -2.4491    0.3500 C   0  0  0  0  0  0  0  0  0  0  0  0
   -3.4321    2.9313    1.2218 C   0  0  0  0  0  0  0  0  0  0  0  0
    3.8380   -1.6203    1.2654 C   0  0  0  0  0  0  0  0  0  0  0  0
    3.6241   -2.5006   -0.9744 C   0  0  0  0  0  0  0  0  0  0  0  0
    4.9215   -0.8429    0.8565 C   0  0  0  0  0  0  0  0  0  0  0  0
    4.7079   -1.7234   -1.3833 C   0  0  0  0  0  0  0  0  0  0  0  0
    5.3565   -0.8944   -0.4680 C   0  0  0  0  0  0  0  0  0  0  0  0
   -1.1750    3.1508    0.2148 C   0  0  0  0  0  0  0  0  0  0  0  0
    0.2859    3.0256    0.4534 C   0  0  0  0  0  0  0  0  0  0  0  0
    1.1419    2.7197   -0.6047 C   0  0  0  0  0  0  0  0  0  0  0  0
    0.8018    3.2136    1.7358 C   0  0  0  0  0  0  0  0  0  0  0  0
    2.5136    2.6017   -0.3805 C   0  0  0  0  0  0  0  0  0  0  0  0
    2.1733    3.0953    1.9601 C   0  0  0  0  0  0  0  0  0  0  0  0
    3.0294    2.7896    0.9019 C   0  0  0  0  0  0  0  0  0  0  0  0
    3.4290    2.2735   -1.5112 C   0  0  0  0  0  0  0  0  0  0  0  0
   -2.2684   -1.6952    0.1581 H   0  0  0  0  0  0  0  0  0  0  0  0
   -2.3833   -3.0868   -2.5660 H   0  0  0  0  0  0  0  0  0  0  0  0
   -2.6474   -1.3593   -2.4709 H   0  0  0  0  0  0  0  0  0  0  0  0
   -4.1922   -3.4772   -0.9090 H   0  0  0  0  0  0  0  0  0  0  0  0
   -4.7833   -2.6665   -2.3455 H   0  0  0  0  0  0  0  0  0  0  0  0
   -6.7582    0.9350   -0.9336 H   0  0  0  0  0  0  0  0  0  0  0  0
   -0.7894   -0.3637   -1.2629 H   0  0  0  0  0  0  0  0  0  0  0  0
   -0.9391   -4.1805   -1.0150 H   0  0  0  0  0  0  0  0  0  0  0  0
   -2.2806   -4.1717    0.1317 H   0  0  0  0  0  0  0  0  0  0  0  0
   -0.0122   -1.8274   -1.8757 H   0  0  0  0  0  0  0  0  0  0  0  0
   -4.1489    0.3012   -1.7731 H   0  0  0  0  0  0  0  0  0  0  0  0
   -5.6290   -0.5504   -2.2577 H   0  0  0  0  0  0  0  0  0  0  0  0
   -5.5522   -2.4773    0.9871 H   0  0  0  0  0  0  0  0  0  0  0  0
   -6.5676   -2.2643   -0.4620 H   0  0  0  0  0  0  0  0  0  0  0  0
   -7.3563   -0.4540    0.8183 H   0  0  0  0  0  0  0  0  0  0  0  0
   -5.8192   -0.2205    1.6435 H   0  0  0  0  0  0  0  0  0  0  0  0
    1.3470   -0.8181   -0.0933 H   0  0  0  0  0  0  0  0  0  0  0  0
   -0.0024   -0.8606    1.0368 H   0  0  0  0  0  0  0  0  0  0  0  0
   -0.8654   -3.0879    1.8484 H   0  0  0  0  0  0  0  0  0  0  0  0
   -0.0994   -4.5649    1.2546 H   0  0  0  0  0  0  0  0  0  0  0  0
   -5.5750    2.5951   -0.0242 H   0  0  0  0  0  0  0  0  0  0  0  0
   -3.7317    3.6996    0.5022 H   0  0  0  0  0  0  0  0  0  0  0  0
   -3.8229    3.1879    2.2107 H   0  0  0  0  0  0  0  0  0  0  0  0
    3.1261   -3.1411   -1.6980 H   0  0  0  0  0  0  0  0  0  0  0  0
   -1.6076    2.5503    2.1763 H   0  0  0  0  0  0  0  0  0  0  0  0
    5.4367   -0.1901    1.5566 H   0  0  0  0  0  0  0  0  0  0  0  0
    5.0456   -1.7620   -2.4148 H   0  0  0  0  0  0  0  0  0  0  0  0
    6.1990   -0.2879   -0.7870 H   0  0  0  0  0  0  0  0  0  0  0  0
    0.7491    2.5651   -1.6070 H   0  0  0  0  0  0  0  0  0  0  0  0
    0.1745    3.4822    2.5804 H   0  0  0  0  0  0  0  0  0  0  0  0
    2.5761    3.2472    2.9573 H   0  0  0  0  0  0  0  0  0  0  0  0
    4.0944    2.7022    1.0978 H   0  0  0  0  0  0  0  0  0  0  0  0
  1 27  1  0  0  0  0
  2 39  1  0  0  0  0
  3 39  1  0  0  0  0
  4 39  1  0  0  0  0
  5 23  2  0  0  0  0
  6 24  2  0  0  0  0
  7 32  2  0  0  0  0
  8 14  1  0  0  0  0
  8 18  1  0  0  0  0
  8 19  1  0  0  0  0
  9 21  1  0  0  0  0
  9 22  1  0  0  0  0
  9 23  1  0  0  0  0
 10 15  1  0  0  0  0
 10 24  1  0  0  0  0
 10 60  1  0  0  0  0
 11 26  1  0  0  0  0
 11 32  1  0  0  0  0
 11 64  1  0  0  0  0
 12 13  1  0  0  0  0
 12 16  1  0  0  0  0
 12 17  1  0  0  0  0
 12 40  1  0  0  0  0
 13 14  1  0  0  0  0
 13 41  1  0  0  0  0
 13 42  1  0  0  0  0
 14 43  1  0  0  0  0
 14 44  1  0  0  0  0
 15 18  1  0  0  0  0
 15 20  1  0  0  0  0
 15 45  1  0  0  0  0
 16 22  1  0  0  0  0
 16 47  1  0  0  0  0
 16 48  1  0  0  0  0
 17 21  1  0  0  0  0
 17 46  1  0  0  0  0
 17 49  1  0  0  0  0
 18 50  1  0  0  0  0
 18 51  1  0  0  0  0
 19 20  1  0  0  0  0
 19 52  1  0  0  0  0
 19 53  1  0  0  0  0
 20 54  1  0  0  0  0
 20 55  1  0  0  0  0
 21 56  1  0  0  0  0
 21 57  1  0  0  0  0
 22 58  1  0  0  0  0
 22 59  1  0  0  0  0
 23 25  1  0  0  0  0
 24 26  1  0  0  0  0
 25 27  1  0  0  0  0
 25 28  2  0  0  0  0
 26 61  1  0  0  0  0
 26 62  1  0  0  0  0
 27 29  2  0  0  0  0
 28 30  1  0  0  0  0
 28 63  1  0  0  0  0
 29 31  1  0  0  0  0
 29 65  1  0  0  0  0
 30 31  2  0  0  0  0
 30 66  1  0  0  0  0
 31 67  1  0  0  0  0
 32 33  1  0  0  0  0
 33 34  2  0  0  0  0
 33 35  1  0  0  0  0
 34 36  1  0  0  0  0
 34 68  1  0  0  0  0
 35 37  2  0  0  0  0
 35 69  1  0  0  0  0
 36 38  2  0  0  0  0
 36 39  1  0  0  0  0
 37 38  1  0  0  0  0
 37 70  1  0  0  0  0
 38 71  1  0  0  0  0
M  END
> <PUBCHEM_COMPOUND_CID>
46884898

> <PUBCHEM_CONFORMER_RMSD>
1.6

> <PUBCHEM_CONFORMER_DIVERSEORDER>
5
13
1
86
121
129
75
87
36
77
97
49
46
94
65
26
70
107
91
114
72
137
62
99
124
27
112
51
14
44
89
132
98
55
29
76
145
22
25
39
84
110
40
16
30
73
119
90
139
88
115
8
108
138
50
20
41
92
63
96
71
56
100
111
2
120
54
147
103
43
123
125
37
52
60
140
59
33
66
117
130
48
101
61
47
4
67
95
68
133
18
142
144
135
57
42
128
105
45
53
113
69
7
23
12
126
58
109
104
35
85
136
24
146
9
28
106
38
80
93
82
74
141
15
143
79
81
118
21
78
122
102
116
131
17
6
64
31
32
34
10
127
83
134
3
19
11

> <PUBCHEM_MMFF94_PARTIAL_CHARGES>
44
1 -0.18
10 -0.73
11 -0.73
14 0.27
15 0.3
18 0.27
19 0.27
2 -0.34
21 0.3
22 0.3
23 0.54
24 0.57
25 0.09
26 0.36
27 0.18
28 -0.15
29 -0.15
3 -0.34
30 -0.15
31 -0.15
32 0.54
33 0.09
34 -0.15
35 -0.15
36 -0.14
37 -0.15
38 -0.15
39 1.16
4 -0.34
5 -0.57
6 -0.57
60 0.37
63 0.15
64 0.37
65 0.15
66 0.15
67 0.15
68 0.15
69 0.15
7 -0.57
70 0.15
71 0.15
8 -0.81
9 -0.66

> <PUBCHEM_EFFECTIVE_ROTOR_COUNT>
14.2

> <PUBCHEM_PHARMACOPHORE_FEATURES>
10
1 10 donor
1 11 donor
1 5 acceptor
1 6 acceptor
1 7 acceptor
1 8 cation
5 8 15 18 19 20 rings
6 25 27 28 29 30 31 rings
6 33 34 35 36 37 38 rings
6 9 12 16 17 21 22 rings

> <PUBCHEM_HEAVY_ATOM_COUNT>
39

> <PUBCHEM_ATOM_DEF_STEREO_COUNT>
1

> <PUBCHEM_ATOM_UDEF_STEREO_COUNT>
0

> <PUBCHEM_BOND_DEF_STEREO_COUNT>
0

> <PUBCHEM_BOND_UDEF_STEREO_COUNT>
0

> <PUBCHEM_ISOTOPIC_ATOM_COUNT>
0

> <PUBCHEM_COMPONENT_COUNT>
1

> <PUBCHEM_CACTVS_TAUTO_COUNT>
4

> <PUBCHEM_CONFORMER_ID>
02CB682200000005

> <PUBCHEM_MMFF94_ENERGY>
84.8524

> <PUBCHEM_FEATURE_SELFOVERLAP>
50.747

> <PUBCHEM_SHAPE_FINGERPRINT>
10190108 129 17687759642086077395
10670039 82 18268151950857801398
10864689 126 17839459981863897632
11513181 2 17844799485375122927
13165053 182 17247561301329928828
13165054 235 18339626889505124446
14040221 10 16844192094319519097
14040221 299 16617014033629767934
14068700 675 18268999692087572780
14117953 113 18055635015405890077
14295343 760 17631188398488435246
15001296 14 18409164424293360385
15160629 131 17341245240856090799
15264996 142 17617123320385479074
15274700 259 17534320273542266269
15297060 5 17487342534114581651
15351339 4 18266733761114150035
15968369 153 18200593712670714026
17627616 140 18410291432639115643
20764821 26 18337110171671202914
338550 245 18410008849102237977
437795 70 18057626290766170462
44344687 77 16976170087265589519
45266715 3 17911491488777021581
463206 1 18413110562772107305
469060 322 18042405720968771276
474144 1 18408604738636182457
9543594 6 18271232855257471681
9831354 38 18049761553028021510

> <PUBCHEM_SHAPE_MULTIPOLES>
745.12
12.67
6.35
1.99
10.99
1.23
-0.03
-2.6
1.48
-2.25
-0.84
-1.83
0.4
-2.59

> <PUBCHEM_SHAPE_SELFOVERLAP>
1574.768

> <PUBCHEM_SHAPE_VOLUME>
417.6

> <PUBCHEM_COORDINATE_TYPE>
2
5
10

$$$$
