11071079
  -OEChem-03232009333D

 67 70  0     0  0  0  0  0  0999 V2000
   -8.0206   -4.4397    0.6011 F   0  0  0  0  0  0  0  0  0  0  0  0
   -6.3453    4.3708   -1.7652 F   0  0  0  0  0  0  0  0  0  0  0  0
    7.2392   -4.1623   -1.2352 F   0  0  0  0  0  0  0  0  0  0  0  0
    5.4224    1.5809    0.5238 O   0  0  0  0  0  0  0  0  0  0  0  0
    4.4943    2.3993    2.4462 O   0  0  0  0  0  0  0  0  0  0  0  0
    0.6353    0.7798   -0.2921 N   0  0  0  0  0  0  0  0  0  0  0  0
    3.1337    1.7899    0.6639 N   0  0  0  0  0  0  0  0  0  0  0  0
   -0.4093   -0.2258   -0.4820 C   0  0  0  0  0  0  0  0  0  0  0  0
    0.8249    1.0632    1.1385 C   0  0  0  0  0  0  0  0  0  0  0  0
    1.8978    0.3338   -0.9005 C   0  0  0  0  0  0  0  0  0  0  0  0
   -1.7432    0.2854    0.0621 C   0  0  0  0  0  0  0  0  0  0  0  0
    1.8886    2.1419    1.3412 C   0  0  0  0  0  0  0  0  0  0  0  0
    2.9875    1.3947   -0.7386 C   0  0  0  0  0  0  0  0  0  0  0  0
   -2.8579   -0.7496   -0.1480 C   0  0  0  0  0  0  0  0  0  0  0  0
   -4.2052   -0.3142    0.4842 C   0  0  0  0  0  0  0  0  0  0  0  0
   -5.2407   -1.4345    0.5166 C   0  0  0  0  0  0  0  0  0  0  0  0
   -4.7860    0.9553   -0.1254 C   0  0  0  0  0  0  0  0  0  0  0  0
    4.3631    1.9588    1.3056 C   0  0  0  0  0  0  0  0  0  0  0  0
   -5.2053   -2.3981   -0.4677 C   0  0  0  0  0  0  0  0  0  0  0  0
   -4.5201    1.2396   -1.4484 C   0  0  0  0  0  0  0  0  0  0  0  0
   -6.1760   -1.4440    1.5284 C   0  0  0  0  0  0  0  0  0  0  0  0
   -5.5584    1.7802    0.6650 C   0  0  0  0  0  0  0  0  0  0  0  0
   -6.1522   -3.4219   -0.4389 C   0  0  0  0  0  0  0  0  0  0  0  0
   -5.0511    2.4023   -2.0067 C   0  0  0  0  0  0  0  0  0  0  0  0
   -7.1228   -2.4679    1.5573 C   0  0  0  0  0  0  0  0  0  0  0  0
   -6.0895    2.9428    0.1065 C   0  0  0  0  0  0  0  0  0  0  0  0
    6.7218    1.7253    1.1088 C   0  0  0  0  0  0  0  0  0  0  0  0
   -7.1110   -3.4569    0.5737 C   0  0  0  0  0  0  0  0  0  0  0  0
   -5.8358    3.2539   -1.2293 C   0  0  0  0  0  0  0  0  0  0  0  0
    7.7866    1.2652    0.1192 C   0  0  0  0  0  0  0  0  0  0  0  0
    7.6404   -0.1925   -0.2447 C   0  0  0  0  0  0  0  0  0  0  0  0
    8.2974   -1.1507    0.5106 C   0  0  0  0  0  0  0  0  0  0  0  0
    6.8510   -0.5460   -1.3277 C   0  0  0  0  0  0  0  0  0  0  0  0
    8.1614   -2.4976    0.1744 C   0  0  0  0  0  0  0  0  0  0  0  0
    6.7150   -1.8929   -1.6637 C   0  0  0  0  0  0  0  0  0  0  0  0
    7.3702   -2.8687   -0.9128 C   0  0  0  0  0  0  0  0  0  0  0  0
   -0.1413   -1.1733    0.0036 H   0  0  0  0  0  0  0  0  0  0  0  0
   -0.5282   -0.4314   -1.5533 H   0  0  0  0  0  0  0  0  0  0  0  0
   -0.0766    1.4641    1.6079 H   0  0  0  0  0  0  0  0  0  0  0  0
    1.1132    0.1531    1.6809 H   0  0  0  0  0  0  0  0  0  0  0  0
    2.2338   -0.6069   -0.4442 H   0  0  0  0  0  0  0  0  0  0  0  0
    1.7542    0.1480   -1.9716 H   0  0  0  0  0  0  0  0  0  0  0  0
   -1.6981    0.4617    1.1405 H   0  0  0  0  0  0  0  0  0  0  0  0
   -1.9906    1.2383   -0.4171 H   0  0  0  0  0  0  0  0  0  0  0  0
    2.0649    2.2955    2.4109 H   0  0  0  0  0  0  0  0  0  0  0  0
    1.5527    3.0989    0.9231 H   0  0  0  0  0  0  0  0  0  0  0  0
    2.7279    2.3000   -1.3010 H   0  0  0  0  0  0  0  0  0  0  0  0
    3.9294    1.0183   -1.1461 H   0  0  0  0  0  0  0  0  0  0  0  0
   -2.9310   -0.9783   -1.2162 H   0  0  0  0  0  0  0  0  0  0  0  0
   -2.5378   -1.6852    0.3331 H   0  0  0  0  0  0  0  0  0  0  0  0
   -3.9603   -0.0869    1.5339 H   0  0  0  0  0  0  0  0  0  0  0  0
   -4.4926   -2.3968   -1.2834 H   0  0  0  0  0  0  0  0  0  0  0  0
   -3.9398    0.5959   -2.0977 H   0  0  0  0  0  0  0  0  0  0  0  0
   -6.1896   -0.6908    2.3091 H   0  0  0  0  0  0  0  0  0  0  0  0
   -5.7524    1.5606    1.7097 H   0  0  0  0  0  0  0  0  0  0  0  0
   -6.1469   -4.1896   -1.2071 H   0  0  0  0  0  0  0  0  0  0  0  0
   -4.8589    2.6425   -3.0484 H   0  0  0  0  0  0  0  0  0  0  0  0
   -7.8675   -2.4973    2.3472 H   0  0  0  0  0  0  0  0  0  0  0  0
   -6.6977    3.6080    0.7124 H   0  0  0  0  0  0  0  0  0  0  0  0
    6.7720    1.1307    2.0289 H   0  0  0  0  0  0  0  0  0  0  0  0
    6.8886    2.7804    1.3546 H   0  0  0  0  0  0  0  0  0  0  0  0
    8.7847    1.4450    0.5372 H   0  0  0  0  0  0  0  0  0  0  0  0
    7.7238    1.8670   -0.7967 H   0  0  0  0  0  0  0  0  0  0  0  0
    8.9139   -0.8715    1.3602 H   0  0  0  0  0  0  0  0  0  0  0  0
    6.3378    0.2056   -1.9206 H   0  0  0  0  0  0  0  0  0  0  0  0
    8.6709   -3.2578    0.7592 H   0  0  0  0  0  0  0  0  0  0  0  0
    6.0990   -2.1821   -2.5100 H   0  0  0  0  0  0  0  0  0  0  0  0
  1 28  1  0  0  0  0
  2 29  1  0  0  0  0
  3 36  1  0  0  0  0
  4 18  1  0  0  0  0
  4 27  1  0  0  0  0
  5 18  2  0  0  0  0
  6  8  1  0  0  0  0
  6  9  1  0  0  0  0
  6 10  1  0  0  0  0
  7 12  1  0  0  0  0
  7 13  1  0  0  0  0
  7 18  1  0  0  0  0
  8 11  1  0  0  0  0
  8 37  1  0  0  0  0
  8 38  1  0  0  0  0
  9 12  1  0  0  0  0
  9 39  1  0  0  0  0
  9 40  1  0  0  0  0
 10 13  1  0  0  0  0
 10 41  1  0  0  0  0
 10 42  1  0  0  0  0
 11 14  1  0  0  0  0
 11 43  1  0  0  0  0
 11 44  1  0  0  0  0
 12 45  1  0  0  0  0
 12 46  1  0  0  0  0
 13 47  1  0  0  0  0
 13 48  1  0  0  0  0
 14 15  1  0  0  0  0
 14 49  1  0  0  0  0
 14 50  1  0  0  0  0
 15 16  1  0  0  0  0
 15 17  1  0  0  0  0
 15 51  1  0  0  0  0
 16 19  2  0  0  0  0
 16 21  1  0  0  0  0
 17 20  2  0  0  0  0
 17 22  1  0  0  0  0
 19 23  1  0  0  0  0
 19 52  1  0  0  0  0
 20 24  1  0  0  0  0
 20 53  1  0  0  0  0
 21 25  2  0  0  0  0
 21 54  1  0  0  0  0
 22 26  2  0  0  0  0
 22 55  1  0  0  0  0
 23 28  2  0  0  0  0
 23 56  1  0  0  0  0
 24 29  2  0  0  0  0
 24 57  1  0  0  0  0
 25 28  1  0  0  0  0
 25 58  1  0  0  0  0
 26 29  1  0  0  0  0
 26 59  1  0  0  0  0
 27 30  1  0  0  0  0
 27 60  1  0  0  0  0
 27 61  1  0  0  0  0
 30 31  1  0  0  0  0
 30 62  1  0  0  0  0
 30 63  1  0  0  0  0
 31 32  2  0  0  0  0
 31 33  1  0  0  0  0
 32 34  1  0  0  0  0
 32 64  1  0  0  0  0
 33 35  2  0  0  0  0
 33 65  1  0  0  0  0
 34 36  2  0  0  0  0
 34 66  1  0  0  0  0
 35 36  1  0  0  0  0
 35 67  1  0  0  0  0
M  END
> <PUBCHEM_COMPOUND_CID>
11071079

> <PUBCHEM_CONFORMER_RMSD>
1.4

> <PUBCHEM_CONFORMER_DIVERSEORDER>
1
10
70
48
34
51
54
91
35
77
46
49
87
29
72
80
27
69
9
21
17
66
50
96
78
85
11
28
41
40
88
56
62
75
63
76
58
45
15
36
84
6
71
55
93
16
89
32
19
47
82
68
43
57
67
13
38
95
59
18
42
14
30
53
23
79
73
8
97
37
60
24
65
86
25
61
90
92
98
20
94
31
2
33
4
44
64
74
39
81
26
3
83
12
7
5
52
22

> <PUBCHEM_MMFF94_PARTIAL_CHARGES>
46
1 -0.19
10 0.27
12 0.3
13 0.3
15 0.29
16 -0.14
17 -0.14
18 0.78
19 -0.15
2 -0.19
20 -0.15
21 -0.15
22 -0.15
23 -0.15
24 -0.15
25 -0.15
26 -0.15
27 0.28
28 0.19
29 0.19
3 -0.19
30 0.14
31 -0.14
32 -0.15
33 -0.15
34 -0.15
35 -0.15
36 0.19
4 -0.43
5 -0.57
52 0.15
53 0.15
54 0.15
55 0.15
56 0.15
57 0.15
58 0.15
59 0.15
6 -0.81
64 0.15
65 0.15
66 0.15
67 0.15
7 -0.66
8 0.27
9 0.27

> <PUBCHEM_EFFECTIVE_ROTOR_COUNT>
12.2

> <PUBCHEM_PHARMACOPHORE_FEATURES>
6
1 5 acceptor
1 6 cation
6 16 19 21 23 25 28 rings
6 17 20 22 24 26 29 rings
6 31 32 33 34 35 36 rings
6 6 7 9 10 12 13 rings

> <PUBCHEM_HEAVY_ATOM_COUNT>
36

> <PUBCHEM_ATOM_DEF_STEREO_COUNT>
0

> <PUBCHEM_ATOM_UDEF_STEREO_COUNT>
0

> <PUBCHEM_BOND_DEF_STEREO_COUNT>
0

> <PUBCHEM_BOND_UDEF_STEREO_COUNT>
0

> <PUBCHEM_ISOTOPIC_ATOM_COUNT>
0

> <PUBCHEM_COMPONENT_COUNT>
1

> <PUBCHEM_CACTVS_TAUTO_COUNT>
1

> <PUBCHEM_CONFORMER_ID>
00A8EE6700000001

> <PUBCHEM_MMFF94_ENERGY>
82.0862

> <PUBCHEM_FEATURE_SELFOVERLAP>
30.448

> <PUBCHEM_SHAPE_FINGERPRINT>
10258705 36 18411426111502491566
11135926 11 16559038207057176109
12144600 37 18410856577225912128
13383668 1 18059008523265140087
13782708 43 18411984701561901902
14118638 360 17749374997462274899
14400156 162 18342186583125271267
14512766 119 18188481394022915309
15183329 4 15791452630332440430
19301679 30 18131077022271816288
19841028 212 18337955559940781082
21814621 53 18342731931906860328
21927370 108 17749961080932413161
4144715 1 18189336938723083400
504579 68 16081367496419717767
58083652 198 16558457660602027440
6691757 9 15626214723847814582
9831232 110 18411139113681888030

> <PUBCHEM_SHAPE_MULTIPOLES>
697.34
31.83
5.09
1.65
30.72
2.4
0
19.23
0.75
-8.07
0.76
-0.04
-0.74
7.34

> <PUBCHEM_SHAPE_SELFOVERLAP>
1485.845

> <PUBCHEM_SHAPE_VOLUME>
388.2

> <PUBCHEM_COORDINATE_TYPE>
2
5
10

$$$$
