49864723
  -OEChem-03232009333D

 59 62  0     1  0  0  0  0  0999 V2000
    3.1227   -1.3729   -0.4746 S   0  0  0  0  0  0  0  0  0  0  0  0
    4.0790   -2.0827    0.3555 O   0  0  0  0  0  0  0  0  0  0  0  0
    3.2217   -1.4770   -1.9192 O   0  0  0  0  0  0  0  0  0  0  0  0
   -1.4983    1.9666   -0.2357 N   0  0  0  0  0  0  0  0  0  0  0  0
   -4.1309    2.2912    0.8240 N   0  0  0  0  0  0  0  0  0  0  0  0
    3.0692    0.3068   -0.0150 N   0  0  1  0  0  0  0  0  0  0  0  0
   -1.6839    2.4260    1.1464 C   0  0  0  0  0  0  0  0  0  0  0  0
   -2.6300    2.1981   -1.1386 C   0  0  0  0  0  0  0  0  0  0  0  0
   -3.9325    1.7020   -0.5057 C   0  0  0  0  0  0  0  0  0  0  0  0
   -3.0164    1.9217    1.7053 C   0  0  0  0  0  0  0  0  0  0  0  0
   -0.1967    1.9339   -0.7485 C   0  0  0  0  0  0  0  0  0  0  0  0
    2.0734    1.1132   -0.6450 C   0  0  0  0  0  0  0  0  0  0  0  0
    0.7761    1.1459   -0.1333 C   0  0  0  0  0  0  0  0  0  0  0  0
   -5.4036    1.8519    1.3951 C   0  0  0  0  0  0  0  0  0  0  0  0
    3.3845    0.6126    1.4155 C   0  0  0  0  0  0  0  0  0  0  0  0
    0.1278    2.6894   -1.8754 C   0  0  0  0  0  0  0  0  0  0  0  0
    2.3979    1.8686   -1.7719 C   0  0  0  0  0  0  0  0  0  0  0  0
    1.4251    2.6569   -2.3868 C   0  0  0  0  0  0  0  0  0  0  0  0
    1.5114   -1.9573   -0.0226 C   0  0  0  0  0  0  0  0  0  0  0  0
    3.8779    2.0475    1.5550 C   0  0  0  0  0  0  0  0  0  0  0  0
    0.4651   -1.8999   -0.9438 C   0  0  0  0  0  0  0  0  0  0  0  0
    1.2909   -2.4734    1.2510 C   0  0  0  0  0  0  0  0  0  0  0  0
   -0.8172   -2.3588   -0.6014 C   0  0  0  0  0  0  0  0  0  0  0  0
    4.2306    2.4117    2.9904 C   0  0  0  0  0  0  0  0  0  0  0  0
   -1.0415   -2.8836    0.6938 C   0  0  0  0  0  0  0  0  0  0  0  0
    0.0233   -2.9339    1.6082 C   0  0  0  0  0  0  0  0  0  0  0  0
   -1.8819   -2.3084   -1.5157 C   0  0  0  0  0  0  0  0  0  0  0  0
   -2.3239   -3.3424    1.0362 C   0  0  0  0  0  0  0  0  0  0  0  0
   -3.1495   -2.7687   -1.1585 C   0  0  0  0  0  0  0  0  0  0  0  0
   -3.3702   -3.2847    0.1151 C   0  0  0  0  0  0  0  0  0  0  0  0
   -0.8830    2.0718    1.8054 H   0  0  0  0  0  0  0  0  0  0  0  0
   -1.6570    3.5232    1.1675 H   0  0  0  0  0  0  0  0  0  0  0  0
   -2.7157    3.2689   -1.3639 H   0  0  0  0  0  0  0  0  0  0  0  0
   -2.4874    1.6612   -2.0848 H   0  0  0  0  0  0  0  0  0  0  0  0
   -3.9157    0.6053   -0.4447 H   0  0  0  0  0  0  0  0  0  0  0  0
   -4.7623    1.9789   -1.1672 H   0  0  0  0  0  0  0  0  0  0  0  0
   -3.1610    2.3642    2.6984 H   0  0  0  0  0  0  0  0  0  0  0  0
   -2.9699    0.8319    1.8363 H   0  0  0  0  0  0  0  0  0  0  0  0
    0.5189    0.5701    0.7517 H   0  0  0  0  0  0  0  0  0  0  0  0
   -6.2382    2.1595    0.7553 H   0  0  0  0  0  0  0  0  0  0  0  0
   -5.4488    0.7641    1.5218 H   0  0  0  0  0  0  0  0  0  0  0  0
   -5.5683    2.3200    2.3719 H   0  0  0  0  0  0  0  0  0  0  0  0
    2.5057    0.4391    2.0460 H   0  0  0  0  0  0  0  0  0  0  0  0
    4.1797   -0.0527    1.7678 H   0  0  0  0  0  0  0  0  0  0  0  0
   -0.5999    3.3250   -2.3716 H   0  0  0  0  0  0  0  0  0  0  0  0
    3.4061    1.8509   -2.1773 H   0  0  0  0  0  0  0  0  0  0  0  0
    1.6791    3.2476   -3.2621 H   0  0  0  0  0  0  0  0  0  0  0  0
    3.1177    2.7564    1.2076 H   0  0  0  0  0  0  0  0  0  0  0  0
    4.7597    2.1982    0.9201 H   0  0  0  0  0  0  0  0  0  0  0  0
    0.6363   -1.4969   -1.9401 H   0  0  0  0  0  0  0  0  0  0  0  0
    2.0898   -2.5201    1.9855 H   0  0  0  0  0  0  0  0  0  0  0  0
    4.5811    3.4471    3.0446 H   0  0  0  0  0  0  0  0  0  0  0  0
    5.0242    1.7628    3.3742 H   0  0  0  0  0  0  0  0  0  0  0  0
    3.3580    2.3120    3.6438 H   0  0  0  0  0  0  0  0  0  0  0  0
   -0.1269   -3.3314    2.6099 H   0  0  0  0  0  0  0  0  0  0  0  0
   -1.7331   -1.9072   -2.5161 H   0  0  0  0  0  0  0  0  0  0  0  0
   -2.5193   -3.7493    2.0262 H   0  0  0  0  0  0  0  0  0  0  0  0
   -3.9647   -2.7227   -1.8747 H   0  0  0  0  0  0  0  0  0  0  0  0
   -4.3575   -3.6422    0.3928 H   0  0  0  0  0  0  0  0  0  0  0  0
  1  2  2  0  0  0  0
  1  3  2  0  0  0  0
  1  6  1  0  0  0  0
  1 19  1  0  0  0  0
  4  7  1  0  0  0  0
  4  8  1  0  0  0  0
  4 11  1  0  0  0  0
  5  9  1  0  0  0  0
  5 10  1  0  0  0  0
  5 14  1  0  0  0  0
  6 12  1  0  0  0  0
  6 15  1  0  0  0  0
  7 10  1  0  0  0  0
  7 31  1  0  0  0  0
  7 32  1  0  0  0  0
  8  9  1  0  0  0  0
  8 33  1  0  0  0  0
  8 34  1  0  0  0  0
  9 35  1  0  0  0  0
  9 36  1  0  0  0  0
 10 37  1  0  0  0  0
 10 38  1  0  0  0  0
 11 13  2  0  0  0  0
 11 16  1  0  0  0  0
 12 13  1  0  0  0  0
 12 17  2  0  0  0  0
 13 39  1  0  0  0  0
 14 40  1  0  0  0  0
 14 41  1  0  0  0  0
 14 42  1  0  0  0  0
 15 20  1  0  0  0  0
 15 43  1  0  0  0  0
 15 44  1  0  0  0  0
 16 18  2  0  0  0  0
 16 45  1  0  0  0  0
 17 18  1  0  0  0  0
 17 46  1  0  0  0  0
 18 47  1  0  0  0  0
 19 21  2  0  0  0  0
 19 22  1  0  0  0  0
 20 24  1  0  0  0  0
 20 48  1  0  0  0  0
 20 49  1  0  0  0  0
 21 23  1  0  0  0  0
 21 50  1  0  0  0  0
 22 26  2  0  0  0  0
 22 51  1  0  0  0  0
 23 25  1  0  0  0  0
 23 27  2  0  0  0  0
 24 52  1  0  0  0  0
 24 53  1  0  0  0  0
 24 54  1  0  0  0  0
 25 26  1  0  0  0  0
 25 28  2  0  0  0  0
 26 55  1  0  0  0  0
 27 29  1  0  0  0  0
 27 56  1  0  0  0  0
 28 30  1  0  0  0  0
 28 57  1  0  0  0  0
 29 30  2  0  0  0  0
 29 58  1  0  0  0  0
 30 59  1  0  0  0  0
M  END
> <PUBCHEM_COMPOUND_CID>
49864723

> <PUBCHEM_CONFORMER_RMSD>
1

> <PUBCHEM_CONFORMER_DIVERSEORDER>
1
23
5
20
81
60
2
82
94
58
39
105
27
12
65
93
46
88
29
59
51
112
63
77
103
104
92
75
64
90
72
102
71
49
47
24
37
6
44
108
14
55
99
10
45
22
70
17
85
31
106
97
40
95
113
54
76
111
83
36
110
86
80
34
35
62
87
50
48
100
68
7
4
41
28
61
69
79
98
96
32
109
33
67
13
19
56
8
57
30
15
53
18
9
43
3
101
74
52
21
91
16
42
11
66
26
84
78
25
107
89
73
38

> <PUBCHEM_MMFF94_PARTIAL_CHARGES>
37
1 1.45
10 0.27
11 0.1
12 0.2
13 -0.15
14 0.27
15 0.36
16 -0.15
17 -0.15
18 -0.15
19 -0.01
2 -0.65
21 -0.15
22 -0.15
26 -0.15
27 -0.15
28 -0.15
29 -0.15
3 -0.65
30 -0.15
39 0.15
4 -0.84
45 0.15
46 0.15
47 0.15
5 -0.81
50 0.15
51 0.15
55 0.15
56 0.15
57 0.15
58 0.15
59 0.15
6 -0.69
7 0.37
8 0.37
9 0.27

> <PUBCHEM_EFFECTIVE_ROTOR_COUNT>
7.2

> <PUBCHEM_PHARMACOPHORE_FEATURES>
9
1 2 acceptor
1 24 hydrophobe
1 3 acceptor
1 4 cation
1 5 cation
6 11 12 13 16 17 18 rings
6 19 21 22 23 25 26 rings
6 23 25 27 28 29 30 rings
6 4 5 7 8 9 10 rings

> <PUBCHEM_HEAVY_ATOM_COUNT>
30

> <PUBCHEM_ATOM_DEF_STEREO_COUNT>
0

> <PUBCHEM_ATOM_UDEF_STEREO_COUNT>
0

> <PUBCHEM_BOND_DEF_STEREO_COUNT>
0

> <PUBCHEM_BOND_UDEF_STEREO_COUNT>
0

> <PUBCHEM_ISOTOPIC_ATOM_COUNT>
0

> <PUBCHEM_COMPONENT_COUNT>
1

> <PUBCHEM_CACTVS_TAUTO_COUNT>
1

> <PUBCHEM_CONFORMER_ID>
02F8E01300000001

> <PUBCHEM_MMFF94_ENERGY>
89.9041

> <PUBCHEM_FEATURE_SELFOVERLAP>
45.719

> <PUBCHEM_SHAPE_FINGERPRINT>
10064457 181 18198913513064806392
10190206 1 17465969433184740988
104564 63 18123487217267785895
10675989 125 17761774362362240709
10816530 23 17489860566160690493
1100329 8 18335711506965508119
11112662 9 17773588313674682173
11513181 2 17988353866728696310
11578080 2 17845944038340509504
12156800 1 18197223761161385192
12422481 6 18410571824830537154
12553582 1 17834127715715308583
12633257 1 18196063618160416584
12788726 201 17906465672349495213
13140716 1 18410853239888857458
140371 6 18045497775484181266
14178342 30 18338508750594018260
14866123 147 17973709291334191986
15338160 23 17980461671581992160
15968369 153 18341905129986808995
16067690 210 16772965675369951777
17138139 8 18057016169619187613
17492 54 17537763981622823798
19734167 9 18340479049698164736
20642791 13 18268416013672421463
20764821 26 18115039579416728095
23558518 356 18336551619875406519
244849 19 17489318529168340228
24941158 1 16916807183560120108
3052486 1 18259706709524057190
3380486 77 17534035726724590218
338550 245 18334870432632112733
35225 105 17698765593811308009
463206 1 18411142416353911485
469060 322 17603860113920247335
484985 159 15873567375841425234
5309563 4 17899430688028757333
6287921 2 17553493483691195935
6438718 38 18272365339365594575
653340 110 18270396225830164361
81228 2 18334850658397025062

> <PUBCHEM_SHAPE_MULTIPOLES>
594.55
7.87
5.44
2.29
1.18
1.6
0.35
-3.16
3.68
3.66
0.36
-1.57
-1.42
-0.34

> <PUBCHEM_SHAPE_SELFOVERLAP>
1259.29

> <PUBCHEM_SHAPE_VOLUME>
334.1

> <PUBCHEM_COORDINATE_TYPE>
2
5
10

$$$$
