72197486
  -OEChem-03242009123D

 47 50  0     0  0  0  0  0  0999 V2000
   -3.8862    1.4592    1.8524 Cl  0  0  0  0  0  0  0  0  0  0  0  0
    5.0900    0.5475    1.4046 N   0  0  0  0  0  0  0  0  0  0  0  0
    2.0187   -1.8542   -0.8080 N   0  0  0  0  0  0  0  0  0  0  0  0
    0.2166   -0.2810   -1.0461 N   0  0  0  0  0  0  0  0  0  0  0  0
    0.5527    2.0078   -0.6518 N   0  0  0  0  0  0  0  0  0  0  0  0
    2.4154    0.4830   -0.3847 C   0  0  0  0  0  0  0  0  0  0  0  0
    3.3181    1.6194   -0.0090 C   0  0  0  0  0  0  0  0  0  0  0  0
    4.2737   -1.2141   -0.1740 C   0  0  0  0  0  0  0  0  0  0  0  0
    2.8452   -0.8375   -0.4618 C   0  0  0  0  0  0  0  0  0  0  0  0
    3.9469    1.4613    1.3772 C   0  0  0  0  0  0  0  0  0  0  0  0
    4.7212   -0.8598    1.2446 C   0  0  0  0  0  0  0  0  0  0  0  0
    1.0792    0.6943   -0.6965 C   0  0  0  0  0  0  0  0  0  0  0  0
    0.7455   -1.5144   -1.0801 C   0  0  0  0  0  0  0  0  0  0  0  0
   -0.1735   -2.6249   -1.4607 C   0  0  0  0  0  0  0  0  0  0  0  0
   -1.3971   -2.7421   -0.5738 C   0  0  0  0  0  0  0  0  0  0  0  0
   -0.7302    2.5063   -0.3712 C   0  0  0  0  0  0  0  0  0  0  0  0
   -1.2959   -3.3488    0.6781 C   0  0  0  0  0  0  0  0  0  0  0  0
   -2.6245   -2.2433   -1.0099 C   0  0  0  0  0  0  0  0  0  0  0  0
   -1.5727    1.8156    0.4999 C   0  0  0  0  0  0  0  0  0  0  0  0
   -1.1614    3.6931   -0.9642 C   0  0  0  0  0  0  0  0  0  0  0  0
   -2.4221   -3.4568    1.4941 C   0  0  0  0  0  0  0  0  0  0  0  0
   -3.7507   -2.3512   -0.1940 C   0  0  0  0  0  0  0  0  0  0  0  0
   -2.8464    2.3114    0.7780 C   0  0  0  0  0  0  0  0  0  0  0  0
   -2.4351    4.1889   -0.6861 C   0  0  0  0  0  0  0  0  0  0  0  0
   -3.6496   -2.9580    1.0579 C   0  0  0  0  0  0  0  0  0  0  0  0
   -3.2776    3.4980    0.1850 C   0  0  0  0  0  0  0  0  0  0  0  0
    4.0935    1.7272   -0.7790 H   0  0  0  0  0  0  0  0  0  0  0  0
    2.7977    2.5813    0.0009 H   0  0  0  0  0  0  0  0  0  0  0  0
    4.9317   -0.7609   -0.9259 H   0  0  0  0  0  0  0  0  0  0  0  0
    4.3785   -2.2997   -0.3004 H   0  0  0  0  0  0  0  0  0  0  0  0
    4.3272    2.4417    1.6887 H   0  0  0  0  0  0  0  0  0  0  0  0
    3.2002    1.1727    2.1274 H   0  0  0  0  0  0  0  0  0  0  0  0
    3.9718   -1.1530    1.9902 H   0  0  0  0  0  0  0  0  0  0  0  0
    5.6210   -1.4448    1.4695 H   0  0  0  0  0  0  0  0  0  0  0  0
    5.7579    0.8118    0.6810 H   0  0  0  0  0  0  0  0  0  0  0  0
    0.3599   -3.5844   -1.4469 H   0  0  0  0  0  0  0  0  0  0  0  0
   -0.4821   -2.4786   -2.5038 H   0  0  0  0  0  0  0  0  0  0  0  0
    1.1450    2.6830   -1.1275 H   0  0  0  0  0  0  0  0  0  0  0  0
   -0.3447   -3.7407    1.0285 H   0  0  0  0  0  0  0  0  0  0  0  0
   -2.7168   -1.7656   -1.9816 H   0  0  0  0  0  0  0  0  0  0  0  0
   -1.2419    0.8965    0.9782 H   0  0  0  0  0  0  0  0  0  0  0  0
   -0.5157    4.2414   -1.6454 H   0  0  0  0  0  0  0  0  0  0  0  0
   -2.3433   -3.9286    2.4691 H   0  0  0  0  0  0  0  0  0  0  0  0
   -4.7061   -1.9610   -0.5327 H   0  0  0  0  0  0  0  0  0  0  0  0
   -2.7710    5.1128   -1.1478 H   0  0  0  0  0  0  0  0  0  0  0  0
   -4.5264   -3.0409    1.6934 H   0  0  0  0  0  0  0  0  0  0  0  0
   -4.2676    3.8962    0.3923 H   0  0  0  0  0  0  0  0  0  0  0  0
  1 23  1  0  0  0  0
  2 10  1  0  0  0  0
  2 11  1  0  0  0  0
  2 35  1  0  0  0  0
  3  9  1  0  0  0  0
  3 13  2  0  0  0  0
  4 12  2  0  0  0  0
  4 13  1  0  0  0  0
  5 12  1  0  0  0  0
  5 16  1  0  0  0  0
  5 38  1  0  0  0  0
  6  7  1  0  0  0  0
  6  9  2  0  0  0  0
  6 12  1  0  0  0  0
  7 10  1  0  0  0  0
  7 27  1  0  0  0  0
  7 28  1  0  0  0  0
  8  9  1  0  0  0  0
  8 11  1  0  0  0  0
  8 29  1  0  0  0  0
  8 30  1  0  0  0  0
 10 31  1  0  0  0  0
 10 32  1  0  0  0  0
 11 33  1  0  0  0  0
 11 34  1  0  0  0  0
 13 14  1  0  0  0  0
 14 15  1  0  0  0  0
 14 36  1  0  0  0  0
 14 37  1  0  0  0  0
 15 17  2  0  0  0  0
 15 18  1  0  0  0  0
 16 19  2  0  0  0  0
 16 20  1  0  0  0  0
 17 21  1  0  0  0  0
 17 39  1  0  0  0  0
 18 22  2  0  0  0  0
 18 40  1  0  0  0  0
 19 23  1  0  0  0  0
 19 41  1  0  0  0  0
 20 24  2  0  0  0  0
 20 42  1  0  0  0  0
 21 25  2  0  0  0  0
 21 43  1  0  0  0  0
 22 25  1  0  0  0  0
 22 44  1  0  0  0  0
 23 26  2  0  0  0  0
 24 26  1  0  0  0  0
 24 45  1  0  0  0  0
 25 46  1  0  0  0  0
 26 47  1  0  0  0  0
M  END
> <PUBCHEM_COMPOUND_CID>
72197486

> <PUBCHEM_CONFORMER_RMSD>
0.8

> <PUBCHEM_CONFORMER_DIVERSEORDER>
1
82
147
123
101
117
119
96
32
137
3
121
46
109
11
120
115
155
38
125
126
127
156
131
100
116
73
144
71
19
24
10
128
108
102
90
105
86
33
67
64
37
134
111
15
151
49
139
153
26
107
88
138
63
143
56
74
57
136
65
28
141
72
106
51
99
92
41
66
7
54
148
87
94
47
60
75
40
93
149
43
18
48
59
133
95
118
104
30
132
110
14
44
145
70
140
45
142
154
84
98
9
113
13
91
97
53
68
34
77
83
129
130
27
61
39
22
20
55
79
122
50
89
52
23
81
42
135
25
69
114
150
5
146
35
8
112
6
36
85
17
80
4
78
21
31
103
58
62
124
12
29
76
16
152
2

> <PUBCHEM_MMFF94_PARTIAL_CHARGES>
37
1 -0.18
10 0.27
11 0.27
12 0.41
13 0.48
14 0.29
15 -0.14
16 0.1
17 -0.15
18 -0.15
19 -0.15
2 -0.9
20 -0.15
21 -0.15
22 -0.15
23 0.18
24 -0.15
25 -0.15
26 -0.15
3 -0.62
35 0.36
38 0.4
39 0.15
4 -0.62
40 0.15
41 0.15
42 0.15
43 0.15
44 0.15
45 0.15
46 0.15
47 0.15
5 -0.6
6 -0.14
7 0.14
8 0.14
9 0.17

> <PUBCHEM_EFFECTIVE_ROTOR_COUNT>
5

> <PUBCHEM_PHARMACOPHORE_FEATURES>
9
1 2 cation
1 2 donor
1 5 donor
3 3 4 13 cation
3 4 5 12 cation
6 15 17 18 21 22 25 rings
6 16 19 20 23 24 26 rings
6 3 4 6 9 12 13 rings
7 2 6 7 8 9 10 11 rings

> <PUBCHEM_HEAVY_ATOM_COUNT>
26

> <PUBCHEM_ATOM_DEF_STEREO_COUNT>
0

> <PUBCHEM_ATOM_UDEF_STEREO_COUNT>
0

> <PUBCHEM_BOND_DEF_STEREO_COUNT>
0

> <PUBCHEM_BOND_UDEF_STEREO_COUNT>
0

> <PUBCHEM_ISOTOPIC_ATOM_COUNT>
0

> <PUBCHEM_COMPONENT_COUNT>
1

> <PUBCHEM_CACTVS_TAUTO_COUNT>
3

> <PUBCHEM_CONFORMER_ID>
044DA56E00000001

> <PUBCHEM_MMFF94_ENERGY>
79.0962

> <PUBCHEM_FEATURE_SELFOVERLAP>
45.823

> <PUBCHEM_SHAPE_FINGERPRINT>
10006869 2 18125434469714896364
10074138 170 18119498043306670800
1100329 8 17617088114728417758
11370993 70 18125154935794429905
114674 6 17618511973643056045
12160290 23 18271539636208052501
12422481 6 18198651924235102395
12553582 1 18051144871235454303
12788726 201 18262520419972251674
13004483 165 18266730471016090419
131258 38 16088171407632661747
13140716 1 18340778077968304166
13561361 72 18339090314972169283
138480 1 16391837308014660807
13965767 371 17630071426980401626
14790565 3 16895111911762810996
14866123 147 18118960283295041138
14955137 171 17544206334019971734
15338160 23 18339632426356544288
17138139 8 17768486627278146381
18603816 31 15364390107934093816
19734167 9 18058193677119803329
20739085 24 17690842684910033320
21033648 29 18051958244022372648
21041028 32 18264486372295395582
21049683 118 17907823285499169680
21197605 99 18271539615656251779
21344244 78 17837492217012412139
23114952 82 11091728723815930243
23558518 356 18337944606750198942
238918 7 18270691844160943959
3052486 1 18194424361533275309
345986 75 17825636062950004306
35225 105 17983257552997753507
4058900 60 17763750884557824984
6004065 56 16172261541924753269
6438718 38 18060709381394228311
653340 110 18412540990063258083
79837 15 18267580204547503488
9777508 108 18340483366029026696
9981440 41 16192767841899446064

> <PUBCHEM_SHAPE_MULTIPOLES>
517.01
8.37
5.95
1.49
7.65
1.33
0.37
0.08
4.35
-8.08
-0.33
-0.12
-0.31
0.75

> <PUBCHEM_SHAPE_SELFOVERLAP>
1111.77

> <PUBCHEM_SHAPE_VOLUME>
283

> <PUBCHEM_COORDINATE_TYPE>
2
5
10

$$$$
