10108561
  -OEChem-03232009343D

 43 46  0     1  0  0  0  0  0999 V2000
    1.0196   -1.5781   -0.2780 O   0  0  0  0  0  0  0  0  0  0  0  0
   -0.0887   -0.8929    0.2527 N   0  0  3  0  0  0  0  0  0  0  0  0
    4.5304   -0.5274    0.1323 N   0  0  0  0  0  0  0  0  0  0  0  0
   -2.8088   -3.1371   -0.8472 N   0  0  0  0  0  0  0  0  0  0  0  0
    0.3102    0.2785    1.0320 C   0  0  1  0  0  0  0  0  0  0  0  0
    1.8239    0.1110    1.1066 C   0  0  0  0  0  0  0  0  0  0  0  0
    2.1149   -0.6593   -0.1641 C   0  0  1  0  0  0  0  0  0  0  0  0
   -0.2436    1.5397    0.3988 C   0  0  0  0  0  0  0  0  0  0  0  0
    3.4211   -1.4288   -0.1067 C   0  0  0  0  0  0  0  0  0  0  0  0
   -1.3896   -1.3442    0.0499 C   0  0  0  0  0  0  0  0  0  0  0  0
   -1.6426    1.7364    0.4393 C   0  0  0  0  0  0  0  0  0  0  0  0
   -2.5334    0.7137    1.1077 C   0  0  0  0  0  0  0  0  0  0  0  0
   -2.5537   -0.6373    0.4206 C   0  0  0  0  0  0  0  0  0  0  0  0
    0.5514    2.5018   -0.2407 C   0  0  0  0  0  0  0  0  0  0  0  0
   -2.2080    2.8785   -0.1482 C   0  0  0  0  0  0  0  0  0  0  0  0
   -1.6051   -2.5759   -0.5848 C   0  0  0  0  0  0  0  0  0  0  0  0
   -3.8145   -1.2066    0.1691 C   0  0  0  0  0  0  0  0  0  0  0  0
   -0.0228    3.6357   -0.8197 C   0  0  0  0  0  0  0  0  0  0  0  0
   -1.3998    3.8244   -0.7732 C   0  0  0  0  0  0  0  0  0  0  0  0
    4.6337    0.4720   -0.9369 C   0  0  0  0  0  0  0  0  0  0  0  0
    5.7918   -1.2675    0.2486 C   0  0  0  0  0  0  0  0  0  0  0  0
   -3.8866   -2.4366   -0.4582 C   0  0  0  0  0  0  0  0  0  0  0  0
   -0.0607    0.2117    2.0628 H   0  0  0  0  0  0  0  0  0  0  0  0
    2.3925    1.0363    1.2245 H   0  0  0  0  0  0  0  0  0  0  0  0
    2.0549   -0.5208    1.9760 H   0  0  0  0  0  0  0  0  0  0  0  0
    2.0634   -0.0179   -1.0514 H   0  0  0  0  0  0  0  0  0  0  0  0
    3.5483   -2.0027   -1.0349 H   0  0  0  0  0  0  0  0  0  0  0  0
    3.3577   -2.1779    0.6942 H   0  0  0  0  0  0  0  0  0  0  0  0
   -2.2392    0.5838    2.1566 H   0  0  0  0  0  0  0  0  0  0  0  0
   -3.5535    1.1181    1.1550 H   0  0  0  0  0  0  0  0  0  0  0  0
    1.6286    2.3911   -0.3110 H   0  0  0  0  0  0  0  0  0  0  0  0
   -3.2832    3.0370   -0.1239 H   0  0  0  0  0  0  0  0  0  0  0  0
   -0.7705   -3.1893   -0.9159 H   0  0  0  0  0  0  0  0  0  0  0  0
   -4.7301   -0.6968    0.4534 H   0  0  0  0  0  0  0  0  0  0  0  0
    0.6087    4.3704   -1.3109 H   0  0  0  0  0  0  0  0  0  0  0  0
   -1.8442    4.7057   -1.2259 H   0  0  0  0  0  0  0  0  0  0  0  0
    5.5460    1.0681   -0.8117 H   0  0  0  0  0  0  0  0  0  0  0  0
    4.6696    0.0139   -1.9321 H   0  0  0  0  0  0  0  0  0  0  0  0
    3.8164    1.1980   -0.9057 H   0  0  0  0  0  0  0  0  0  0  0  0
    6.0413   -1.8045   -0.6738 H   0  0  0  0  0  0  0  0  0  0  0  0
    6.6169   -0.5877    0.4888 H   0  0  0  0  0  0  0  0  0  0  0  0
    5.7363   -1.9935    1.0675 H   0  0  0  0  0  0  0  0  0  0  0  0
   -4.8448   -2.8989   -0.6694 H   0  0  0  0  0  0  0  0  0  0  0  0
  1  2  1  0  0  0  0
  1  7  1  0  0  0  0
  2  5  1  0  0  0  0
  2 10  1  0  0  0  0
  3  9  1  0  0  0  0
  3 20  1  0  0  0  0
  3 21  1  0  0  0  0
  4 16  2  0  0  0  0
  4 22  1  0  0  0  0
  5  6  1  0  0  0  0
  5  8  1  0  0  0  0
  5 23  1  0  0  0  0
  6  7  1  0  0  0  0
  6 24  1  0  0  0  0
  6 25  1  0  0  0  0
  7  9  1  0  0  0  0
  7 26  1  0  0  0  0
  8 11  1  0  0  0  0
  8 14  2  0  0  0  0
  9 27  1  0  0  0  0
  9 28  1  0  0  0  0
 10 13  2  0  0  0  0
 10 16  1  0  0  0  0
 11 12  1  0  0  0  0
 11 15  2  0  0  0  0
 12 13  1  0  0  0  0
 12 29  1  0  0  0  0
 12 30  1  0  0  0  0
 13 17  1  0  0  0  0
 14 18  1  0  0  0  0
 14 31  1  0  0  0  0
 15 19  1  0  0  0  0
 15 32  1  0  0  0  0
 16 33  1  0  0  0  0
 17 22  2  0  0  0  0
 17 34  1  0  0  0  0
 18 19  2  0  0  0  0
 18 35  1  0  0  0  0
 19 36  1  0  0  0  0
 20 37  1  0  0  0  0
 20 38  1  0  0  0  0
 20 39  1  0  0  0  0
 21 40  1  0  0  0  0
 21 41  1  0  0  0  0
 21 42  1  0  0  0  0
 22 43  1  0  0  0  0
M  END
> <PUBCHEM_COMPOUND_CID>
10108561

> <PUBCHEM_CONFORMER_RMSD>
0.6

> <PUBCHEM_CONFORMER_DIVERSEORDER>
8
3
15
1
6
9
19
2
18
21
4
13
7
10
5
20
14
12
16
17
11

> <PUBCHEM_MMFF94_PARTIAL_CHARGES>
28
1 -0.26
10 0.1
11 -0.14
12 0.29
13 -0.14
14 -0.15
15 -0.15
16 0.16
17 -0.15
18 -0.15
19 -0.15
2 -0.49
20 0.27
21 0.27
22 0.16
3 -0.81
31 0.15
32 0.15
33 0.15
34 0.15
35 0.15
36 0.15
4 -0.62
43 0.15
5 0.51
7 0.28
8 -0.14
9 0.27

> <PUBCHEM_EFFECTIVE_ROTOR_COUNT>
2.8

> <PUBCHEM_PHARMACOPHORE_FEATURES>
6
1 3 cation
1 4 acceptor
5 1 2 5 6 7 rings
6 4 10 13 16 17 22 rings
6 8 11 14 15 18 19 rings
7 2 5 8 10 11 12 13 rings

> <PUBCHEM_HEAVY_ATOM_COUNT>
22

> <PUBCHEM_ATOM_DEF_STEREO_COUNT>
0

> <PUBCHEM_ATOM_UDEF_STEREO_COUNT>
2

> <PUBCHEM_BOND_DEF_STEREO_COUNT>
0

> <PUBCHEM_BOND_UDEF_STEREO_COUNT>
0

> <PUBCHEM_ISOTOPIC_ATOM_COUNT>
0

> <PUBCHEM_COMPONENT_COUNT>
1

> <PUBCHEM_CACTVS_TAUTO_COUNT>
1

> <PUBCHEM_CONFORMER_ID>
009A3E9100000008

> <PUBCHEM_MMFF94_ENERGY>
75.5689

> <PUBCHEM_FEATURE_SELFOVERLAP>
30.511

> <PUBCHEM_SHAPE_FINGERPRINT>
10319926 262 18196911316272678122
10411042 1 18337953510154482931
10493431 412 17984152465569487537
10871710 139 18334870410793383420
11045515 52 18188205506734131621
11595378 159 18262215778163415258
11833330 49 18408317796002690656
12173636 292 17977945679180396884
12403259 226 18341608218533763040
12403814 3 18337121059334365456
12553582 1 18336256937895509435
12788726 201 18261385611955344410
13004483 165 18410564111132764750
13009979 54 17914914246994053803
13140716 1 18269564995277066147
13583140 156 17915153773405057314
138480 1 15672383925810118093
14508225 48 18340193185243343205
14790565 3 18051420569629806121
14910302 57 18058465213938050734
15042514 8 18338239262696730187
16087824 20 18337670794860814061
16945 1 18340477898730805545
17357779 13 18200010928858993653
17492 89 17907575084273105375
17539 30 18339910550546308789
1813 80 18269007525200884230
20101258 96 18263099836371324386
20693207 138 17558291842529066430
21029758 27 18337400434393795547
21285901 2 18202010888828366903
21339142 126 18410013200062189122
22182313 1 18194658553299705657
22907989 373 18335974268770002685
23227448 37 18338518517645003276
23402539 116 18412541015870335830
23419403 2 17488440001533025856
23557571 272 18272942587776229750
23559900 14 18130497639119269424
23566358 27 17688598581788862963
238 59 16674976996875250149
255183 451 17982737677235180631
2748010 2 17763196747818636401
335352 9 18413388752874049559
352729 6 17763458418089235051
394222 165 16601788585256242257
4280585 95 18338221786675217210
4409770 3 18264761061128540701
46194498 28 17401163126948297607
531348 171 18120663435876130018
532947 4 17690851476782292100
559249 180 18047751499860381970
6992083 37 18270135577339626779
7164475 11 18408886214135334190
7364860 26 17835237123053151641
81228 2 18410852166289263923
9925002 15 18336844055429393349

> <PUBCHEM_SHAPE_MULTIPOLES>
431.94
7.93
4.36
0.96
12
3.16
0.07
-5.75
-0.55
-4.13
-1.69
-0.05
0.14
-0.63

> <PUBCHEM_SHAPE_SELFOVERLAP>
939.931

> <PUBCHEM_SHAPE_VOLUME>
234.3

> <PUBCHEM_COORDINATE_TYPE>
2
5
10

$$$$
