53320010
  -OEChem-03232009343D

 56 60  0     1  0  0  0  0  0999 V2000
    1.4327   -1.8344    0.8530 S   0  0  0  0  0  0  0  0  0  0  0  0
   -3.6251   -1.7200   -0.0551 O   0  0  0  0  0  0  0  0  0  0  0  0
    1.7062   -3.2493    0.9873 O   0  0  0  0  0  0  0  0  0  0  0  0
    0.8890   -1.0725    1.9570 O   0  0  0  0  0  0  0  0  0  0  0  0
   -3.8142    0.8644   -0.1253 N   0  0  0  0  0  0  0  0  0  0  0  0
   -6.6170    1.2117    0.3023 N   0  0  0  0  0  0  0  0  0  0  0  0
    0.4560   -1.5817   -0.5333 N   0  0  2  0  0  0  0  0  0  0  0  0
   -4.3514    0.9017    1.2407 C   0  0  0  0  0  0  0  0  0  0  0  0
   -4.6383    1.5146   -1.1489 C   0  0  0  0  0  0  0  0  0  0  0  0
   -2.4250    0.8097   -0.2843 C   0  0  0  0  0  0  0  0  0  0  0  0
   -5.8106    0.4405    1.2564 C   0  0  0  0  0  0  0  0  0  0  0  0
   -6.0887    1.0346   -1.0557 C   0  0  0  0  0  0  0  0  0  0  0  0
   -1.7008   -0.3853   -0.3429 C   0  0  0  0  0  0  0  0  0  0  0  0
   -0.3092   -0.3557   -0.5076 C   0  0  0  0  0  0  0  0  0  0  0  0
   -0.2966   -2.7619   -1.0368 C   0  0  0  0  0  0  0  0  0  0  0  0
   -1.5769   -2.9463   -0.2424 C   0  0  0  0  0  0  0  0  0  0  0  0
   -2.4097   -1.6839   -0.2213 C   0  0  0  0  0  0  0  0  0  0  0  0
   -1.7571    2.0314   -0.3769 C   0  0  0  0  0  0  0  0  0  0  0  0
    0.3544    0.8736   -0.5838 C   0  0  0  0  0  0  0  0  0  0  0  0
   -8.0189    0.8000    0.3654 C   0  0  0  0  0  0  0  0  0  0  0  0
   -0.3709    2.0635   -0.5239 C   0  0  0  0  0  0  0  0  0  0  0  0
    2.9221   -1.0440    0.3299 C   0  0  0  0  0  0  0  0  0  0  0  0
    3.3205    0.1547    0.9223 C   0  0  0  0  0  0  0  0  0  0  0  0
    3.6984   -1.6172   -0.6731 C   0  0  0  0  0  0  0  0  0  0  0  0
    4.5027    0.7959    0.5176 C   0  0  0  0  0  0  0  0  0  0  0  0
    5.2919    0.2130   -0.5024 C   0  0  0  0  0  0  0  0  0  0  0  0
    4.8758   -0.9939   -1.0875 C   0  0  0  0  0  0  0  0  0  0  0  0
    4.9187    2.0029    1.1027 C   0  0  0  0  0  0  0  0  0  0  0  0
    6.4740    0.8544   -0.9071 C   0  0  0  0  0  0  0  0  0  0  0  0
    6.0959    2.6263    0.6882 C   0  0  0  0  0  0  0  0  0  0  0  0
    6.8722    2.0532   -0.3148 C   0  0  0  0  0  0  0  0  0  0  0  0
   -4.2552    1.2809   -2.1500 H   0  0  0  0  0  0  0  0  0  0  0  0
   -4.5993    2.6041   -1.0238 H   0  0  0  0  0  0  0  0  0  0  0  0
   -4.2746    1.9238    1.6336 H   0  0  0  0  0  0  0  0  0  0  0  0
   -3.7693    0.2529    1.9069 H   0  0  0  0  0  0  0  0  0  0  0  0
   -6.6875    1.6123   -1.7703 H   0  0  0  0  0  0  0  0  0  0  0  0
   -6.1458   -0.0197   -1.3591 H   0  0  0  0  0  0  0  0  0  0  0  0
   -5.8651   -0.6326    1.0314 H   0  0  0  0  0  0  0  0  0  0  0  0
   -6.2004    0.5783    2.2724 H   0  0  0  0  0  0  0  0  0  0  0  0
    0.3199   -3.6657   -1.0153 H   0  0  0  0  0  0  0  0  0  0  0  0
   -0.5293   -2.5854   -2.0955 H   0  0  0  0  0  0  0  0  0  0  0  0
   -2.1707   -3.7451   -0.6995 H   0  0  0  0  0  0  0  0  0  0  0  0
   -1.3631   -3.2244    0.7954 H   0  0  0  0  0  0  0  0  0  0  0  0
   -2.2958    2.9745   -0.3262 H   0  0  0  0  0  0  0  0  0  0  0  0
    1.4210    0.9359   -0.7571 H   0  0  0  0  0  0  0  0  0  0  0  0
   -8.6267    1.4007   -0.3203 H   0  0  0  0  0  0  0  0  0  0  0  0
   -8.1536   -0.2573    0.1098 H   0  0  0  0  0  0  0  0  0  0  0  0
   -8.4232    0.9660    1.3701 H   0  0  0  0  0  0  0  0  0  0  0  0
    0.1442    3.0166   -0.6018 H   0  0  0  0  0  0  0  0  0  0  0  0
    2.7188    0.6069    1.7077 H   0  0  0  0  0  0  0  0  0  0  0  0
    3.3994   -2.5489   -1.1456 H   0  0  0  0  0  0  0  0  0  0  0  0
    5.4665   -1.4596   -1.8737 H   0  0  0  0  0  0  0  0  0  0  0  0
    4.3277    2.4694    1.8882 H   0  0  0  0  0  0  0  0  0  0  0  0
    7.0962    0.4245   -1.6893 H   0  0  0  0  0  0  0  0  0  0  0  0
    6.4064    3.5596    1.1488 H   0  0  0  0  0  0  0  0  0  0  0  0
    7.7885    2.5391   -0.6370 H   0  0  0  0  0  0  0  0  0  0  0  0
  1  3  2  0  0  0  0
  1  4  2  0  0  0  0
  1  7  1  0  0  0  0
  1 22  1  0  0  0  0
  2 17  2  0  0  0  0
  5  8  1  0  0  0  0
  5  9  1  0  0  0  0
  5 10  1  0  0  0  0
  6 11  1  0  0  0  0
  6 12  1  0  0  0  0
  6 20  1  0  0  0  0
  7 14  1  0  0  0  0
  7 15  1  0  0  0  0
  8 11  1  0  0  0  0
  8 34  1  0  0  0  0
  8 35  1  0  0  0  0
  9 12  1  0  0  0  0
  9 32  1  0  0  0  0
  9 33  1  0  0  0  0
 10 13  2  0  0  0  0
 10 18  1  0  0  0  0
 11 38  1  0  0  0  0
 11 39  1  0  0  0  0
 12 36  1  0  0  0  0
 12 37  1  0  0  0  0
 13 14  1  0  0  0  0
 13 17  1  0  0  0  0
 14 19  2  0  0  0  0
 15 16  1  0  0  0  0
 15 40  1  0  0  0  0
 15 41  1  0  0  0  0
 16 17  1  0  0  0  0
 16 42  1  0  0  0  0
 16 43  1  0  0  0  0
 18 21  2  0  0  0  0
 18 44  1  0  0  0  0
 19 21  1  0  0  0  0
 19 45  1  0  0  0  0
 20 46  1  0  0  0  0
 20 47  1  0  0  0  0
 20 48  1  0  0  0  0
 21 49  1  0  0  0  0
 22 23  2  0  0  0  0
 22 24  1  0  0  0  0
 23 25  1  0  0  0  0
 23 50  1  0  0  0  0
 24 27  2  0  0  0  0
 24 51  1  0  0  0  0
 25 26  1  0  0  0  0
 25 28  2  0  0  0  0
 26 27  1  0  0  0  0
 26 29  2  0  0  0  0
 27 52  1  0  0  0  0
 28 30  1  0  0  0  0
 28 53  1  0  0  0  0
 29 31  1  0  0  0  0
 29 54  1  0  0  0  0
 30 31  2  0  0  0  0
 30 55  1  0  0  0  0
 31 56  1  0  0  0  0
M  END
> <PUBCHEM_COMPOUND_CID>
53320010

> <PUBCHEM_CONFORMER_RMSD>
0.8

> <PUBCHEM_CONFORMER_DIVERSEORDER>
1
21
59
23
9
52
55
39
28
45
33
47
54
41
44
6
32
10
35
18
20
11
48
50
38
19
24
16
60
40
43
17
12
49
27
58
30
34
46
36
13
37
3
53
56
22
31
57
5
29
51
61
8
7
26
4
14
42
15
25
2

> <PUBCHEM_MMFF94_PARTIAL_CHARGES>
39
1 1.45
10 0.1
11 0.27
12 0.27
13 0.09
14 0.2
15 0.36
16 0.06
17 0.42
18 -0.15
19 -0.15
2 -0.57
20 0.27
21 -0.15
22 -0.01
23 -0.15
24 -0.15
27 -0.15
28 -0.15
29 -0.15
3 -0.65
30 -0.15
31 -0.15
4 -0.65
44 0.15
45 0.15
49 0.15
5 -0.84
50 0.15
51 0.15
52 0.15
53 0.15
54 0.15
55 0.15
56 0.15
6 -0.81
7 -0.69
8 0.37
9 0.37

> <PUBCHEM_EFFECTIVE_ROTOR_COUNT>
4.8

> <PUBCHEM_PHARMACOPHORE_FEATURES>
10
1 2 acceptor
1 3 acceptor
1 4 acceptor
1 5 cation
1 6 cation
6 10 13 14 18 19 21 rings
6 22 23 24 25 26 27 rings
6 25 26 28 29 30 31 rings
6 5 6 8 9 11 12 rings
6 7 13 14 15 16 17 rings

> <PUBCHEM_HEAVY_ATOM_COUNT>
31

> <PUBCHEM_ATOM_DEF_STEREO_COUNT>
0

> <PUBCHEM_ATOM_UDEF_STEREO_COUNT>
0

> <PUBCHEM_BOND_DEF_STEREO_COUNT>
0

> <PUBCHEM_BOND_UDEF_STEREO_COUNT>
0

> <PUBCHEM_ISOTOPIC_ATOM_COUNT>
0

> <PUBCHEM_COMPONENT_COUNT>
1

> <PUBCHEM_CACTVS_TAUTO_COUNT>
2

> <PUBCHEM_CONFORMER_ID>
032D994A00000001

> <PUBCHEM_MMFF94_ENERGY>
109.9685

> <PUBCHEM_FEATURE_SELFOVERLAP>
50.818

> <PUBCHEM_SHAPE_FINGERPRINT>
10 15 18113056047281193441
10006869 2 18335693884746464362
10165383 225 18410857660022043820
10498660 4 18408597059545841724
10906281 52 18411989040090904551
11181472 205 17771628950365237449
11578080 2 17058910338545825722
12166972 35 12319733687218422202
12730499 353 18409172087100429658
12788726 201 17060067990913759896
13617811 41 18260270750041203685
13911987 19 18339346476018591405
14020679 6 17604151527166522449
14114211 68 18188507804461561326
14394314 77 18341899555030471473
1454969 45 18413103953676956885
14617045 38 18409730659944320376
14790565 3 18411982463841619020
14840074 17 18408884019053663605
15183329 4 14045745911014491065
15575132 122 18336824191601443941
15840311 113 18334863809407518349
15849732 13 18334579053471594677
19319366 153 18113892732949602170
20642791 178 17969793070927151204
21033648 29 18200302355681228104
21521721 280 18342461426360622921
21927370 108 10904884487667952151
23559900 14 18200587124560855040
249057 3 18343304735206354902
2747138 104 18187943767623139825
3004659 81 11671777178903388872
34797466 226 18131636651223598060
34934 24 18333725810530433567
394071 54 18341900696731876192
4093350 32 17417817214118434229
4340502 62 16805606936639189763
437795 51 18413110575825898769
4461854 278 18058179500219970311
469060 322 17095796728453376214
5104073 3 18407757054121772826
53794403 172 18190744331135016324
550186 72 18335700490939948861
5758199 1 18343587326679110505
58260988 393 16370719297128027812
6328613 192 18272655653574468969
6697151 62 17031029751206692379

> <PUBCHEM_SHAPE_MULTIPOLES>
609.26
17.85
3.08
1.22
6.28
1.5
0.24
-13.4
0.33
-1.64
0.03
0
0.04
0.53

> <PUBCHEM_SHAPE_SELFOVERLAP>
1327.358

> <PUBCHEM_SHAPE_VOLUME>
331.7

> <PUBCHEM_COORDINATE_TYPE>
2
5
10

$$$$
