45278805
  -OEChem-03232009343D

 63 66  0     0  0  0  0  0  0999 V2000
    4.1427    2.5426   -0.3623 Cl  0  0  0  0  0  0  0  0  0  0  0  0
    6.8537    4.0385   -1.2085 Cl  0  0  0  0  0  0  0  0  0  0  0  0
   -2.4760   -3.4540   -1.3112 O   0  0  0  0  0  0  0  0  0  0  0  0
    2.3313   -1.9718    1.0785 N   0  0  0  0  0  0  0  0  0  0  0  0
    4.5625   -0.3296    0.3827 N   0  0  0  0  0  0  0  0  0  0  0  0
   -1.9355   -2.7631    0.8363 N   0  0  0  0  0  0  0  0  0  0  0  0
   -4.9545   -0.0645   -1.4231 N   0  0  0  0  0  0  0  0  0  0  0  0
    2.3597   -1.2642   -0.2077 C   0  0  0  0  0  0  0  0  0  0  0  0
    3.0142   -1.1727    2.1031 C   0  0  0  0  0  0  0  0  0  0  0  0
    4.4751   -0.9208    1.7215 C   0  0  0  0  0  0  0  0  0  0  0  0
    3.7986   -1.0167   -0.6663 C   0  0  0  0  0  0  0  0  0  0  0  0
    0.9529   -2.2510    1.4799 C   0  0  0  0  0  0  0  0  0  0  0  0
    0.4226   -3.4761    0.7333 C   0  0  0  0  0  0  0  0  0  0  0  0
    5.7153    0.3684    0.0061 C   0  0  0  0  0  0  0  0  0  0  0  0
   -1.0097   -3.8227    1.1297 C   0  0  0  0  0  0  0  0  0  0  0  0
    5.6680    1.7118   -0.3663 C   0  0  0  0  0  0  0  0  0  0  0  0
    6.9328   -0.3122    0.0087 C   0  0  0  0  0  0  0  0  0  0  0  0
   -3.5066   -1.4957   -0.5358 C   0  0  0  0  0  0  0  0  0  0  0  0
   -2.6029   -2.6644   -0.3791 C   0  0  0  0  0  0  0  0  0  0  0  0
   -4.2545   -1.2188   -1.6589 C   0  0  0  0  0  0  0  0  0  0  0  0
   -4.6652    0.3992   -0.1662 C   0  0  0  0  0  0  0  0  0  0  0  0
    6.8381    2.3745   -0.7364 C   0  0  0  0  0  0  0  0  0  0  0  0
    8.1031    0.3506   -0.3614 C   0  0  0  0  0  0  0  0  0  0  0  0
   -3.7664   -0.4719    0.4085 C   0  0  0  0  0  0  0  0  0  0  0  0
    8.0557    1.6940   -0.7340 C   0  0  0  0  0  0  0  0  0  0  0  0
   -5.2453    1.6027    0.3876 C   0  0  0  0  0  0  0  0  0  0  0  0
   -4.3647   -1.9520   -2.9390 C   0  0  0  0  0  0  0  0  0  0  0  0
   -5.8615    0.5623   -2.3631 C   0  0  0  0  0  0  0  0  0  0  0  0
   -6.0065    1.5368    1.5545 C   0  0  0  0  0  0  0  0  0  0  0  0
   -5.0436    2.8293   -0.2450 C   0  0  0  0  0  0  0  0  0  0  0  0
   -6.5662    2.6974    2.0888 C   0  0  0  0  0  0  0  0  0  0  0  0
   -5.6031    3.9899    0.2891 C   0  0  0  0  0  0  0  0  0  0  0  0
   -6.3644    3.9240    1.4561 C   0  0  0  0  0  0  0  0  0  0  0  0
    2.5011   -0.2125    2.2500 H   0  0  0  0  0  0  0  0  0  0  0  0
    3.0031   -1.6999    3.0648 H   0  0  0  0  0  0  0  0  0  0  0  0
    1.8635   -1.8438   -0.9928 H   0  0  0  0  0  0  0  0  0  0  0  0
    1.8329   -0.3030   -0.1332 H   0  0  0  0  0  0  0  0  0  0  0  0
    3.7759   -0.4178   -1.5851 H   0  0  0  0  0  0  0  0  0  0  0  0
    4.2877   -1.9689   -0.9087 H   0  0  0  0  0  0  0  0  0  0  0  0
    5.0359   -1.8637    1.7492 H   0  0  0  0  0  0  0  0  0  0  0  0
    4.9206   -0.2472    2.4640 H   0  0  0  0  0  0  0  0  0  0  0  0
    0.9160   -2.4887    2.5515 H   0  0  0  0  0  0  0  0  0  0  0  0
    0.3099   -1.3743    1.3330 H   0  0  0  0  0  0  0  0  0  0  0  0
    0.4487   -3.3162   -0.3502 H   0  0  0  0  0  0  0  0  0  0  0  0
    1.0638   -4.3414    0.9436 H   0  0  0  0  0  0  0  0  0  0  0  0
   -1.3259   -4.7315    0.6058 H   0  0  0  0  0  0  0  0  0  0  0  0
   -1.0706   -4.0203    2.2053 H   0  0  0  0  0  0  0  0  0  0  0  0
    6.9901   -1.3610    0.2888 H   0  0  0  0  0  0  0  0  0  0  0  0
   -2.0853   -2.0681    1.5597 H   0  0  0  0  0  0  0  0  0  0  0  0
    9.0509   -0.1797   -0.3611 H   0  0  0  0  0  0  0  0  0  0  0  0
   -3.3512   -0.3660    1.4017 H   0  0  0  0  0  0  0  0  0  0  0  0
    8.9777    2.1943   -1.0196 H   0  0  0  0  0  0  0  0  0  0  0  0
   -5.0363   -2.8094   -2.8292 H   0  0  0  0  0  0  0  0  0  0  0  0
   -4.7347   -1.3332   -3.7612 H   0  0  0  0  0  0  0  0  0  0  0  0
   -3.3884   -2.3193   -3.2701 H   0  0  0  0  0  0  0  0  0  0  0  0
   -6.5932    1.1803   -1.8393 H   0  0  0  0  0  0  0  0  0  0  0  0
   -6.4198   -0.2104   -2.8977 H   0  0  0  0  0  0  0  0  0  0  0  0
   -5.2721    1.1651   -3.0582 H   0  0  0  0  0  0  0  0  0  0  0  0
   -6.1770    0.5892    2.0601 H   0  0  0  0  0  0  0  0  0  0  0  0
   -4.4444    2.9052   -1.1493 H   0  0  0  0  0  0  0  0  0  0  0  0
   -7.1594    2.6461    2.9971 H   0  0  0  0  0  0  0  0  0  0  0  0
   -5.4441    4.9455   -0.2020 H   0  0  0  0  0  0  0  0  0  0  0  0
   -6.7997    4.8278    1.8722 H   0  0  0  0  0  0  0  0  0  0  0  0
  1 16  1  0  0  0  0
  2 22  1  0  0  0  0
  3 19  2  0  0  0  0
  4  8  1  0  0  0  0
  4  9  1  0  0  0  0
  4 12  1  0  0  0  0
  5 10  1  0  0  0  0
  5 11  1  0  0  0  0
  5 14  1  0  0  0  0
  6 15  1  0  0  0  0
  6 19  1  0  0  0  0
  6 49  1  0  0  0  0
  7 20  1  0  0  0  0
  7 21  1  0  0  0  0
  7 28  1  0  0  0  0
  8 11  1  0  0  0  0
  8 36  1  0  0  0  0
  8 37  1  0  0  0  0
  9 10  1  0  0  0  0
  9 34  1  0  0  0  0
  9 35  1  0  0  0  0
 10 40  1  0  0  0  0
 10 41  1  0  0  0  0
 11 38  1  0  0  0  0
 11 39  1  0  0  0  0
 12 13  1  0  0  0  0
 12 42  1  0  0  0  0
 12 43  1  0  0  0  0
 13 15  1  0  0  0  0
 13 44  1  0  0  0  0
 13 45  1  0  0  0  0
 14 16  2  0  0  0  0
 14 17  1  0  0  0  0
 15 46  1  0  0  0  0
 15 47  1  0  0  0  0
 16 22  1  0  0  0  0
 17 23  2  0  0  0  0
 17 48  1  0  0  0  0
 18 19  1  0  0  0  0
 18 20  2  0  0  0  0
 18 24  1  0  0  0  0
 20 27  1  0  0  0  0
 21 24  2  0  0  0  0
 21 26  1  0  0  0  0
 22 25  2  0  0  0  0
 23 25  1  0  0  0  0
 23 50  1  0  0  0  0
 24 51  1  0  0  0  0
 25 52  1  0  0  0  0
 26 29  2  0  0  0  0
 26 30  1  0  0  0  0
 27 53  1  0  0  0  0
 27 54  1  0  0  0  0
 27 55  1  0  0  0  0
 28 56  1  0  0  0  0
 28 57  1  0  0  0  0
 28 58  1  0  0  0  0
 29 31  1  0  0  0  0
 29 59  1  0  0  0  0
 30 32  2  0  0  0  0
 30 60  1  0  0  0  0
 31 33  2  0  0  0  0
 31 61  1  0  0  0  0
 32 33  1  0  0  0  0
 32 62  1  0  0  0  0
 33 63  1  0  0  0  0
M  END
> <PUBCHEM_COMPOUND_CID>
45278805

> <PUBCHEM_CONFORMER_RMSD>
1.2

> <PUBCHEM_CONFORMER_DIVERSEORDER>
1
4
46
28
70
104
30
121
112
108
35
14
66
20
102
40
89
75
36
54
101
79
69
38
62
60
115
109
43
111
118
29
100
55
45
94
95
80
18
49
85
52
124
103
72
107
71
76
122
123
37
50
73
98
91
27
47
113
93
41
67
8
63
53
117
39
83
114
99
90
105
58
32
74
87
68
81
6
22
119
24
65
64
88
120
84
56
48
82
59
116
61
92
15
34
21
26
110
5
86
96
44
78
7
9
51
77
16
57
125
17
3
10
106
126
42
12
33
97
2
31
19
23
11
25
13

> <PUBCHEM_MMFF94_PARTIAL_CHARGES>
42
1 -0.18
10 0.37
11 0.37
12 0.27
14 0.1
15 0.3
16 0.18
17 -0.15
18 -0.09
19 0.72
2 -0.18
20 -0.33
21 -0.2
22 0.18
23 -0.15
24 -0.15
25 -0.15
26 0.05
27 0.18
28 0.26
29 -0.15
3 -0.57
30 -0.15
31 -0.15
32 -0.15
33 -0.15
4 -0.81
48 0.15
49 0.37
5 -0.84
50 0.15
51 0.15
52 0.15
59 0.15
6 -0.73
60 0.15
61 0.15
62 0.15
63 0.15
7 0.05
8 0.27
9 0.27

> <PUBCHEM_EFFECTIVE_ROTOR_COUNT>
9.2

> <PUBCHEM_PHARMACOPHORE_FEATURES>
9
1 3 acceptor
1 4 cation
1 5 cation
1 6 donor
1 7 cation
5 7 18 20 21 24 rings
6 14 16 17 22 23 25 rings
6 26 29 30 31 32 33 rings
6 4 5 8 9 10 11 rings

> <PUBCHEM_HEAVY_ATOM_COUNT>
33

> <PUBCHEM_ATOM_DEF_STEREO_COUNT>
0

> <PUBCHEM_ATOM_UDEF_STEREO_COUNT>
0

> <PUBCHEM_BOND_DEF_STEREO_COUNT>
0

> <PUBCHEM_BOND_UDEF_STEREO_COUNT>
0

> <PUBCHEM_ISOTOPIC_ATOM_COUNT>
0

> <PUBCHEM_COMPONENT_COUNT>
1

> <PUBCHEM_CACTVS_TAUTO_COUNT>
2

> <PUBCHEM_CONFORMER_ID>
02B2E65500000001

> <PUBCHEM_MMFF94_ENERGY>
86.7987

> <PUBCHEM_FEATURE_SELFOVERLAP>
45.675

> <PUBCHEM_SHAPE_FINGERPRINT>
100830 2 18338798918716417945
10794284 68 18130788993671241191
10917259 128 18339064004889329088
10917259 69 18408889513092190872
11135609 201 18334299751875138027
11181472 205 18259988207104498612
11200772 71 18272654510934216769
11273773 42 18413385415821526119
11476731 99 18130780218220171760
11505856 67 18412537731133198455
12013929 29 18336552715915247020
12061779 8 18338519629899251361
12895837 130 18343587347879413015
12975358 362 17749681688002641677
13782708 43 11311516692668815406
13885169 86 18335425647138398569
14150022 121 18041293170348384403
14251764 75 18338520729547632587
14664723 55 18411702058443705413
14765038 42 18334298655956376398
14950920 106 12179841714636519214
15064981 113 17846490435527317934
15183329 4 18409160021909878852
15357212 105 17986681377142407475
155225 6 18195531390071627177
16112460 7 18335419049715392244
16120349 67 18272093768731064067
16728433 281 18190191247053380708
16992727 255 18341899580419778752
16993427 108 11170497759238154001
17852330 134 18129957663510832806
19053607 189 18271796878873693090
19302320 297 18191025595177359418
19303781 99 12463580603379286108
19309040 13 18272090453063953367
19438510 23 18040722458739809882
20691028 202 18408042918074693496
21223535 225 18413390938685381588
21774942 28 18411697721539631880
24771750 20 17273698642584834991
2748736 6 18335975398303832898
2838139 119 18341049718050506502
393628 194 18409732871683907037
406291 66 8646470913476944377
4144715 1 18044105764200273666
4258327 124 18127964206449291593
42767 24 13686306755549410632
437795 70 14404616534092222051
44880568 143 18341906237982889558
50009960 94 11098153192147872643
57634706 229 18260842500334966354
57724786 102 18261950726398761707
5911458 16 18410579465556640544
6034566 193 18198899220326047347
6058803 2 18052509142519490455
6328613 192 18261670484862784118
7970288 3 9871457716970632097

> <PUBCHEM_SHAPE_MULTIPOLES>
657.07
25.27
5.53
2.05
23.86
1.6
-0.49
27.75
-3.28
-4.58
0.9
-3.34
-0.52
-6.46

> <PUBCHEM_SHAPE_SELFOVERLAP>
1385.46

> <PUBCHEM_SHAPE_VOLUME>
372.2

> <PUBCHEM_COORDINATE_TYPE>
2
5
10

$$$$
