44267161
  -OEChem-03232009343D

 73 76  0     1  0  0  0  0  0999 V2000
    0.7836   -1.4805   -1.2577 O   0  0  0  0  0  0  0  0  0  0  0  0
    4.5417    1.0085   -2.4701 O   0  0  0  0  0  0  0  0  0  0  0  0
   -4.6866   -0.2247   -0.9324 O   0  0  0  0  0  0  0  0  0  0  0  0
   -0.9217   -2.0520    1.5071 O   0  0  0  0  0  0  0  0  0  0  0  0
    2.6092   -0.1448   -1.8400 N   0  0  0  0  0  0  0  0  0  0  0  0
   -1.5008    2.5942    0.0212 N   0  0  2  0  0  0  0  0  0  0  0  0
    3.7968   -0.7043    0.6415 C   0  0  0  0  0  0  0  0  0  0  0  0
    3.2273    0.5377    1.3486 C   0  0  0  0  0  0  0  0  0  0  0  0
    4.5961   -1.3547    1.7829 C   0  0  0  0  0  0  0  0  0  0  0  0
    2.8677    0.0658    2.7558 C   0  0  0  0  0  0  0  0  0  0  0  0
    3.7393   -1.1584    3.0303 C   0  0  0  0  0  0  0  0  0  0  0  0
    2.7076   -1.6483    0.1271 C   0  0  0  0  0  0  0  0  0  0  0  0
    4.7003   -0.3607   -0.5356 C   0  0  0  0  0  0  0  0  0  0  0  0
    1.9280   -1.0768   -1.0363 C   0  0  0  0  0  0  0  0  0  0  0  0
    3.9497    0.2549   -1.6939 C   0  0  0  0  0  0  0  0  0  0  0  0
    1.8660    0.4214   -2.9609 C   0  0  0  0  0  0  0  0  0  0  0  0
    1.1325    1.7045   -2.5838 C   0  0  0  0  0  0  0  0  0  0  0  0
    0.1315    1.4975   -1.4424 C   0  0  0  0  0  0  0  0  0  0  0  0
   -0.5592    2.8093   -1.0712 C   0  0  0  0  0  0  0  0  0  0  0  0
   -3.5260    1.3074    0.6169 C   0  0  2  0  0  0  0  0  0  0  0  0
   -2.7613    2.0482   -0.4850 C   0  0  0  0  0  0  0  0  0  0  0  0
   -2.7026    0.1544    1.1986 C   0  0  0  0  0  0  0  0  0  0  0  0
   -4.8532    0.7482    0.1038 C   0  0  0  0  0  0  0  0  0  0  0  0
   -1.7431    3.8426    0.7462 C   0  0  0  0  0  0  0  0  0  0  0  0
   -2.7799   -1.0732    0.3338 C   0  0  0  0  0  0  0  0  0  0  0  0
   -0.5871    4.1346    1.6995 C   0  0  0  0  0  0  0  0  0  0  0  0
   -3.7617   -1.1993   -0.6576 C   0  0  0  0  0  0  0  0  0  0  0  0
   -1.8748   -2.1240    0.5340 C   0  0  0  0  0  0  0  0  0  0  0  0
   -3.8103   -2.3408   -1.4616 C   0  0  0  0  0  0  0  0  0  0  0  0
   -0.4032    3.0108    2.7077 C   0  0  0  0  0  0  0  0  0  0  0  0
   -1.9336   -3.2693   -0.2609 C   0  0  0  0  0  0  0  0  0  0  0  0
   -2.8983   -3.3757   -1.2605 C   0  0  0  0  0  0  0  0  0  0  0  0
   -1.2737   -2.5526    2.7945 C   0  0  0  0  0  0  0  0  0  0  0  0
    2.3659    0.9833    0.8473 H   0  0  0  0  0  0  0  0  0  0  0  0
    3.9957    1.3183    1.4228 H   0  0  0  0  0  0  0  0  0  0  0  0
    5.5546   -0.8384    1.9234 H   0  0  0  0  0  0  0  0  0  0  0  0
    4.8176   -2.4123    1.6051 H   0  0  0  0  0  0  0  0  0  0  0  0
    1.8081   -0.2101    2.8093 H   0  0  0  0  0  0  0  0  0  0  0  0
    3.0352    0.8573    3.4933 H   0  0  0  0  0  0  0  0  0  0  0  0
    4.3602   -1.0238    3.9218 H   0  0  0  0  0  0  0  0  0  0  0  0
    3.1059   -2.0361    3.2035 H   0  0  0  0  0  0  0  0  0  0  0  0
    1.9902   -1.8950    0.9181 H   0  0  0  0  0  0  0  0  0  0  0  0
    3.1479   -2.5932   -0.2161 H   0  0  0  0  0  0  0  0  0  0  0  0
    5.2048   -1.2590   -0.9131 H   0  0  0  0  0  0  0  0  0  0  0  0
    5.4806    0.3457   -0.2266 H   0  0  0  0  0  0  0  0  0  0  0  0
    1.1457   -0.3153   -3.3359 H   0  0  0  0  0  0  0  0  0  0  0  0
    2.5531    0.6342   -3.7879 H   0  0  0  0  0  0  0  0  0  0  0  0
    0.6085    2.0883   -3.4672 H   0  0  0  0  0  0  0  0  0  0  0  0
    1.8642    2.4669   -2.2885 H   0  0  0  0  0  0  0  0  0  0  0  0
   -0.5967    0.7404   -1.7509 H   0  0  0  0  0  0  0  0  0  0  0  0
    0.6348    1.1255   -0.5467 H   0  0  0  0  0  0  0  0  0  0  0  0
   -3.7583    2.0032    1.4313 H   0  0  0  0  0  0  0  0  0  0  0  0
   -1.0555    3.2498   -1.9464 H   0  0  0  0  0  0  0  0  0  0  0  0
    0.2316    3.5138   -0.7902 H   0  0  0  0  0  0  0  0  0  0  0  0
   -3.3875    2.8455   -0.9092 H   0  0  0  0  0  0  0  0  0  0  0  0
   -2.5846    1.3537   -1.3133 H   0  0  0  0  0  0  0  0  0  0  0  0
   -3.1253   -0.1062    2.1776 H   0  0  0  0  0  0  0  0  0  0  0  0
   -1.6614    0.4440    1.3687 H   0  0  0  0  0  0  0  0  0  0  0  0
   -5.4308    0.2946    0.9198 H   0  0  0  0  0  0  0  0  0  0  0  0
   -5.4679    1.5570   -0.3071 H   0  0  0  0  0  0  0  0  0  0  0  0
   -1.8855    4.6849    0.0563 H   0  0  0  0  0  0  0  0  0  0  0  0
   -2.6544    3.7946    1.3528 H   0  0  0  0  0  0  0  0  0  0  0  0
    0.3547    4.3150    1.1719 H   0  0  0  0  0  0  0  0  0  0  0  0
   -0.8141    5.0595    2.2440 H   0  0  0  0  0  0  0  0  0  0  0  0
   -4.5600   -2.4325   -2.2432 H   0  0  0  0  0  0  0  0  0  0  0  0
   -1.3396    2.7817    3.2265 H   0  0  0  0  0  0  0  0  0  0  0  0
   -0.0339    2.0967    2.2328 H   0  0  0  0  0  0  0  0  0  0  0  0
    0.3343    3.3050    3.4618 H   0  0  0  0  0  0  0  0  0  0  0  0
   -1.2279   -4.0813   -0.1079 H   0  0  0  0  0  0  0  0  0  0  0  0
   -2.9404   -4.2652   -1.8822 H   0  0  0  0  0  0  0  0  0  0  0  0
   -0.4458   -2.3467    3.4785 H   0  0  0  0  0  0  0  0  0  0  0  0
   -1.4284   -3.6353    2.7503 H   0  0  0  0  0  0  0  0  0  0  0  0
   -2.1734   -2.0629    3.1786 H   0  0  0  0  0  0  0  0  0  0  0  0
  1 14  2  0  0  0  0
  2 15  2  0  0  0  0
  3 23  1  0  0  0  0
  3 27  1  0  0  0  0
  4 28  1  0  0  0  0
  4 33  1  0  0  0  0
  5 14  1  0  0  0  0
  5 15  1  0  0  0  0
  5 16  1  0  0  0  0
  6 19  1  0  0  0  0
  6 21  1  0  0  0  0
  6 24  1  0  0  0  0
  7  8  1  0  0  0  0
  7  9  1  0  0  0  0
  7 12  1  0  0  0  0
  7 13  1  0  0  0  0
  8 10  1  0  0  0  0
  8 34  1  0  0  0  0
  8 35  1  0  0  0  0
  9 11  1  0  0  0  0
  9 36  1  0  0  0  0
  9 37  1  0  0  0  0
 10 11  1  0  0  0  0
 10 38  1  0  0  0  0
 10 39  1  0  0  0  0
 11 40  1  0  0  0  0
 11 41  1  0  0  0  0
 12 14  1  0  0  0  0
 12 42  1  0  0  0  0
 12 43  1  0  0  0  0
 13 15  1  0  0  0  0
 13 44  1  0  0  0  0
 13 45  1  0  0  0  0
 16 17  1  0  0  0  0
 16 46  1  0  0  0  0
 16 47  1  0  0  0  0
 17 18  1  0  0  0  0
 17 48  1  0  0  0  0
 17 49  1  0  0  0  0
 18 19  1  0  0  0  0
 18 50  1  0  0  0  0
 18 51  1  0  0  0  0
 19 53  1  0  0  0  0
 19 54  1  0  0  0  0
 20 21  1  0  0  0  0
 20 22  1  0  0  0  0
 20 23  1  0  0  0  0
 20 52  1  0  0  0  0
 21 55  1  0  0  0  0
 21 56  1  0  0  0  0
 22 25  1  0  0  0  0
 22 57  1  0  0  0  0
 22 58  1  0  0  0  0
 23 59  1  0  0  0  0
 23 60  1  0  0  0  0
 24 26  1  0  0  0  0
 24 61  1  0  0  0  0
 24 62  1  0  0  0  0
 25 27  2  0  0  0  0
 25 28  1  0  0  0  0
 26 30  1  0  0  0  0
 26 63  1  0  0  0  0
 26 64  1  0  0  0  0
 27 29  1  0  0  0  0
 28 31  2  0  0  0  0
 29 32  2  0  0  0  0
 29 65  1  0  0  0  0
 30 66  1  0  0  0  0
 30 67  1  0  0  0  0
 30 68  1  0  0  0  0
 31 32  1  0  0  0  0
 31 69  1  0  0  0  0
 32 70  1  0  0  0  0
 33 71  1  0  0  0  0
 33 72  1  0  0  0  0
 33 73  1  0  0  0  0
M  END
> <PUBCHEM_COMPOUND_CID>
44267161

> <PUBCHEM_CONFORMER_RMSD>
1.4

> <PUBCHEM_CONFORMER_DIVERSEORDER>
7
199
170
78
234
180
147
233
65
227
237
208
175
245
9
55
38
196
142
191
122
62
232
200
143
6
93
22
121
119
104
211
214
179
4
29
228
154
117
250
70
235
168
230
86
236
61
13
66
243
138
21
90
187
160
139
150
248
185
82
135
246
85
223
231
221
51
204
212
109
26
58
43
34
177
97
73
130
1
32
252
244
218
173
166
148
209
76
102
20
31
203
80
28
163
242
16
59
115
157
182
8
153
251
63
155
50
81
42
45
226
60
40
75
247
53
89
159
84
210
136
11
217
178
149
100
188
12
174
41
207
103
224
37
197
229
79
192
151
133
184
167
190
202
67
74
120
49
144
52
176
2
239
206
193
189
5
33
106
172
222
114
46
215
145
3
201
225
118
15
181
220
205
249
137
14
19
241
96
107
18
47
56
158
95
112
134
186
127
101
240
94
194
162
64
213
25
113
128
195
216
57
110
156
88
165
48
108
171
44
24
164
69
72
126
23
99
146
27
131
198
238
17
35
152
116
125
36
161
71
219
68
141
39
129
83
123
10
87
92
91
169
54
183
98
132
140
111
105
30
124
77

> <PUBCHEM_MMFF94_PARTIAL_CHARGES>
26
1 -0.57
12 0.06
13 0.06
14 0.57
15 0.57
16 0.3
19 0.27
2 -0.57
21 0.27
22 0.14
23 0.28
24 0.27
25 -0.14
27 0.08
28 0.08
29 -0.15
3 -0.36
31 -0.15
32 -0.15
33 0.28
4 -0.36
5 -0.42
6 -0.81
65 0.15
69 0.15
70 0.15

> <PUBCHEM_EFFECTIVE_ROTOR_COUNT>
12.2

> <PUBCHEM_PHARMACOPHORE_FEATURES>
10
1 1 acceptor
1 2 acceptor
1 3 acceptor
1 30 hydrophobe
1 4 acceptor
1 6 cation
5 7 8 9 10 11 rings
6 25 27 28 29 31 32 rings
6 3 20 22 23 25 27 rings
6 5 7 12 13 14 15 rings

> <PUBCHEM_HEAVY_ATOM_COUNT>
33

> <PUBCHEM_ATOM_DEF_STEREO_COUNT>
0

> <PUBCHEM_ATOM_UDEF_STEREO_COUNT>
1

> <PUBCHEM_BOND_DEF_STEREO_COUNT>
0

> <PUBCHEM_BOND_UDEF_STEREO_COUNT>
0

> <PUBCHEM_ISOTOPIC_ATOM_COUNT>
0

> <PUBCHEM_COMPONENT_COUNT>
1

> <PUBCHEM_CACTVS_TAUTO_COUNT>
3

> <PUBCHEM_CONFORMER_ID>
02A3769900000007

> <PUBCHEM_MMFF94_ENERGY>
83.1737

> <PUBCHEM_FEATURE_SELFOVERLAP>
50.785

> <PUBCHEM_SHAPE_FINGERPRINT>
10032420 55 16961574026738523677
10366900 7 17631741465052305156
11828532 37 18339062896497518179
12156800 1 16161799997638650389
12166972 35 17676754457697722979
12422481 6 17536602803145365577
12539773 59 17970067746923224545
12633257 1 18343011173257723984
12788726 201 18337684039495203073
13947920 75 18334020480131896614
14081887 123 18272367521055506021
14114207 22 16827792048835148017
14705955 166 16843898455563494041
161222 619 17488154145785106000
17349148 13 18259699004020555415
17818456 19 18337663110225337650
20511986 3 17967532376262641364
20600515 1 18337379521918456297
20764821 26 18343588472702084145
21315764 21 16443609294651340391
23419403 2 17544425016158304597
35225 105 18192981643580042744
469060 322 16770095004606008126
508706 21 17988636376565086427
56638632 33 18337093648980261048

> <PUBCHEM_SHAPE_MULTIPOLES>
645.69
9.16
4.44
3.17
3.07
2.41
0.51
-3.22
-0.31
-4.53
1.37
3.39
0.4
-1.81

> <PUBCHEM_SHAPE_SELFOVERLAP>
1351.562

> <PUBCHEM_SHAPE_VOLUME>
365.2

> <PUBCHEM_COORDINATE_TYPE>
2
5
10

$$$$
