
 OpenBabel03242023313D

 71 74  0  0  0  0  0  0  0  0999 V2000
   11.9142    3.6250   10.5788 N   0  0  0  0  0  0  0  0  0  0  0  0
   11.4184    3.7477    9.5334 C   0  0  0  0  0  0  0  0  0  0  0  0
   10.8083    3.9018    8.2465 C   0  0  0  0  0  0  0  0  0  0  0  0
   11.0910    2.9862    7.2264 C   0  0  0  0  0  0  0  0  0  0  0  0
   10.5091    3.1427    5.9696 C   0  0  0  0  0  0  0  0  0  0  0  0
    9.6412    4.2139    5.7234 C   0  0  0  0  0  0  0  0  0  0  0  0
    9.0386    4.3925    4.3635 C   0  0  0  0  0  0  0  0  0  0  0  0
    7.7191    3.6481    4.1602 C   0  0  0  0  0  0  0  0  0  0  0  0
    7.3877    3.9073    2.7929 O   0  0  0  0  0  0  0  0  0  0  0  0
    7.0154    2.8733    2.0166 C   0  0  0  0  0  0  0  0  0  0  0  0
    6.3544    1.9134    2.3785 O   0  0  0  0  0  0  0  0  0  0  0  0
    7.5347    2.9939    0.7501 N   0  0  0  0  0  0  0  0  0  0  0  0
    8.8526    3.6065    0.5441 C   0  0  0  0  0  0  0  0  0  0  0  0
    8.8237    5.1389    0.5616 C   0  0  0  0  0  0  0  0  0  0  0  0
    8.4489    5.7629   -0.7748 C   0  0  0  0  0  0  0  0  0  0  0  0
    9.2197    5.1960   -1.8900 N   0  0  0  0  0  0  0  0  0  0  0  0
    8.8771    5.8519   -3.1609 C   0  0  0  0  0  0  0  0  0  0  0  0
    9.2734    7.3361   -3.1954 C   0  0  0  0  0  0  0  0  0  0  0  0
   10.7649    7.6017   -2.9270 C   0  0  0  0  0  0  0  0  0  0  0  0
   11.7145    6.9895   -3.9873 C   0  0  0  0  0  0  0  0  0  0  0  0
   11.4221    7.5432   -5.3801 C   0  0  0  0  0  0  0  0  0  0  0  0
   11.5335    8.9176   -5.6555 C   0  0  0  0  0  0  0  0  0  0  0  0
   11.2297    9.4153   -6.9226 C   0  0  0  0  0  0  0  0  0  0  0  0
   10.8154    8.5427   -7.9197 C   0  0  0  0  0  0  0  0  0  0  0  0
   10.5284    9.0212   -9.1373 F   0  0  0  0  0  0  0  0  0  0  0  0
   10.6923    7.1813   -7.6726 C   0  0  0  0  0  0  0  0  0  0  0  0
   10.9954    6.6804   -6.4054 C   0  0  0  0  0  0  0  0  0  0  0  0
   13.1971    7.0943   -3.6279 C   0  0  0  0  0  0  0  0  0  0  0  0
   14.0769    6.0857   -4.0675 C   0  0  0  0  0  0  0  0  0  0  0  0
   15.4357    6.1348   -3.7524 C   0  0  0  0  0  0  0  0  0  0  0  0
   15.9256    7.1962   -3.0042 C   0  0  0  0  0  0  0  0  0  0  0  0
   17.2279    7.2419   -2.6952 F   0  0  0  0  0  0  0  0  0  0  0  0
   15.0839    8.2115   -2.5708 C   0  0  0  0  0  0  0  0  0  0  0  0
   13.7241    8.1636   -2.8839 C   0  0  0  0  0  0  0  0  0  0  0  0
    8.9874    3.7485   -1.9749 C   0  0  0  0  0  0  0  0  0  0  0  0
    9.5304    3.0771   -0.7199 C   0  0  0  0  0  0  0  0  0  0  0  0
    9.3525    5.1227    6.7492 C   0  0  0  0  0  0  0  0  0  0  0  0
    9.9385    4.9716    8.0051 C   0  0  0  0  0  0  0  0  0  0  0  0
   11.7703    2.1524    7.3995 H   0  0  0  0  0  0  0  0  0  0  0  0
   10.7442    2.4315    5.1796 H   0  0  0  0  0  0  0  0  0  0  0  0
    9.7648    4.0697    3.6048 H   0  0  0  0  0  0  0  0  0  0  0  0
    8.8953    5.4612    4.1507 H   0  0  0  0  0  0  0  0  0  0  0  0
    6.9308    4.0555    4.8011 H   0  0  0  0  0  0  0  0  0  0  0  0
    7.8317    2.5763    4.3604 H   0  0  0  0  0  0  0  0  0  0  0  0
    7.2878    2.1995    0.1743 H   0  0  0  0  0  0  0  0  0  0  0  0
    9.4651    3.2761    1.3937 H   0  0  0  0  0  0  0  0  0  0  0  0
    9.8206    5.4997    0.8472 H   0  0  0  0  0  0  0  0  0  0  0  0
    8.1334    5.5334    1.3132 H   0  0  0  0  0  0  0  0  0  0  0  0
    8.6611    6.8320   -0.6700 H   0  0  0  0  0  0  0  0  0  0  0  0
    7.3711    5.6629   -0.9522 H   0  0  0  0  0  0  0  0  0  0  0  0
    7.8043    5.7586   -3.3697 H   0  0  0  0  0  0  0  0  0  0  0  0
    9.3908    5.3392   -3.9827 H   0  0  0  0  0  0  0  0  0  0  0  0
    8.6846    7.9020   -2.4644 H   0  0  0  0  0  0  0  0  0  0  0  0
    8.9856    7.7541   -4.1662 H   0  0  0  0  0  0  0  0  0  0  0  0
   11.0336    7.2189   -1.9334 H   0  0  0  0  0  0  0  0  0  0  0  0
   10.8957    8.6894   -2.8697 H   0  0  0  0  0  0  0  0  0  0  0  0
   11.5041    5.9114   -3.9965 H   0  0  0  0  0  0  0  0  0  0  0  0
   11.8522    9.6119   -4.8818 H   0  0  0  0  0  0  0  0  0  0  0  0
   11.3137   10.4759   -7.1352 H   0  0  0  0  0  0  0  0  0  0  0  0
   10.3601    6.5206   -8.4668 H   0  0  0  0  0  0  0  0  0  0  0  0
   10.8862    5.6139   -6.2211 H   0  0  0  0  0  0  0  0  0  0  0  0
   13.7035    5.2503   -4.6564 H   0  0  0  0  0  0  0  0  0  0  0  0
   16.1116    5.3534   -4.0842 H   0  0  0  0  0  0  0  0  0  0  0  0
   15.4887    9.0342   -1.9904 H   0  0  0  0  0  0  0  0  0  0  0  0
   13.0886    8.9730   -2.5365 H   0  0  0  0  0  0  0  0  0  0  0  0
    9.5140    3.3262   -2.8391 H   0  0  0  0  0  0  0  0  0  0  0  0
    7.9206    3.5215   -2.0996 H   0  0  0  0  0  0  0  0  0  0  0  0
   10.6102    3.2716   -0.6527 H   0  0  0  0  0  0  0  0  0  0  0  0
    9.4158    1.9892   -0.7942 H   0  0  0  0  0  0  0  0  0  0  0  0
    8.6832    5.9607    6.5703 H   0  0  0  0  0  0  0  0  0  0  0  0
    9.7090    5.6852    8.7944 H   0  0  0  0  0  0  0  0  0  0  0  0
  1  2  3  0  0  0  0
  2  3  1  0  0  0  0
  3  4  1  0  0  0  0
  3 38  2  0  0  0  0
  4  5  2  0  0  0  0
  4 39  1  0  0  0  0
  5  6  1  0  0  0  0
  5 40  1  0  0  0  0
  6  7  1  0  0  0  0
  6 37  2  0  0  0  0
  7  8  1  0  0  0  0
  7 41  1  0  0  0  0
  7 42  1  0  0  0  0
  8  9  1  0  0  0  0
  8 43  1  0  0  0  0
  8 44  1  0  0  0  0
  9 10  1  0  0  0  0
 10 11  2  0  0  0  0
 10 12  1  0  0  0  0
 12 13  1  0  0  0  0
 12 45  1  0  0  0  0
 13 14  1  0  0  0  0
 13 36  1  0  0  0  0
 13 46  1  0  0  0  0
 14 15  1  0  0  0  0
 14 47  1  0  0  0  0
 14 48  1  0  0  0  0
 15 16  1  0  0  0  0
 15 49  1  0  0  0  0
 15 50  1  0  0  0  0
 16 17  1  0  0  0  0
 16 35  1  0  0  0  0
 17 18  1  0  0  0  0
 17 51  1  0  0  0  0
 17 52  1  0  0  0  0
 18 19  1  0  0  0  0
 18 53  1  0  0  0  0
 18 54  1  0  0  0  0
 19 20  1  0  0  0  0
 19 55  1  0  0  0  0
 19 56  1  0  0  0  0
 20 21  1  0  0  0  0
 20 28  1  0  0  0  0
 20 57  1  0  0  0  0
 21 22  1  0  0  0  0
 21 27  2  0  0  0  0
 22 23  2  0  0  0  0
 22 58  1  0  0  0  0
 23 24  1  0  0  0  0
 23 59  1  0  0  0  0
 24 25  1  0  0  0  0
 24 26  2  0  0  0  0
 26 27  1  0  0  0  0
 26 60  1  0  0  0  0
 27 61  1  0  0  0  0
 28 29  1  0  0  0  0
 28 34  2  0  0  0  0
 29 30  2  0  0  0  0
 29 62  1  0  0  0  0
 30 31  1  0  0  0  0
 30 63  1  0  0  0  0
 31 32  1  0  0  0  0
 31 33  2  0  0  0  0
 33 34  1  0  0  0  0
 33 64  1  0  0  0  0
 34 65  1  0  0  0  0
 35 36  1  0  0  0  0
 35 66  1  0  0  0  0
 35 67  1  0  0  0  0
 36 68  1  0  0  0  0
 36 69  1  0  0  0  0
 37 38  1  0  0  0  0
 37 70  1  0  0  0  0
 38 71  1  0  0  0  0
M  END
>  <Energy>
36.8409

$$$$
