9911120
  -OEChem-03232009343D

 68 72  0     1  0  0  0  0  0999 V2000
   -4.9304    0.5060    0.7249 O   0  0  0  0  0  0  0  0  0  0  0  0
    3.2842    2.0343   -1.9016 O   0  0  0  0  0  0  0  0  0  0  0  0
    3.6474    0.8228    2.5959 O   0  0  0  0  0  0  0  0  0  0  0  0
   -1.6812   -2.8023   -0.6739 O   0  0  0  0  0  0  0  0  0  0  0  0
   -1.7129    2.3613   -0.1445 N   0  0  1  0  0  0  0  0  0  0  0  0
    3.4035    1.4342    0.3556 N   0  0  0  0  0  0  0  0  0  0  0  0
    4.5189   -1.0298   -0.4137 C   0  0  0  0  0  0  0  0  0  0  0  0
   -2.8120    1.3740   -0.2138 C   0  0  1  0  0  0  0  0  0  0  0  0
    5.5054   -2.1456   -0.7965 C   0  0  0  0  0  0  0  0  0  0  0  0
    3.1751   -1.7706   -0.5254 C   0  0  0  0  0  0  0  0  0  0  0  0
   -3.4819    1.6566   -1.5861 C   0  0  0  0  0  0  0  0  0  0  0  0
    4.6302    0.1529   -1.3670 C   0  0  0  0  0  0  0  0  0  0  0  0
    4.7974   -0.5120    0.9991 C   0  0  0  0  0  0  0  0  0  0  0  0
   -2.0372    3.4600   -1.0510 C   0  0  0  0  0  0  0  0  0  0  0  0
    4.9467   -3.4098   -0.1495 C   0  0  0  0  0  0  0  0  0  0  0  0
    3.4466   -3.1729    0.0152 C   0  0  0  0  0  0  0  0  0  0  0  0
   -2.6169    2.7230   -2.2376 C   0  0  0  0  0  0  0  0  0  0  0  0
   -2.1921   -0.0380   -0.1874 C   0  0  0  0  0  0  0  0  0  0  0  0
   -3.8569    1.4369    0.9174 C   0  0  0  0  0  0  0  0  0  0  0  0
   -1.3309    2.8318    1.1769 C   0  0  0  0  0  0  0  0  0  0  0  0
    3.6939    1.2851   -1.0120 C   0  0  0  0  0  0  0  0  0  0  0  0
    3.8855    0.6250    1.4018 C   0  0  0  0  0  0  0  0  0  0  0  0
    0.1319    3.2744    1.1800 C   0  0  0  0  0  0  0  0  0  0  0  0
   -3.2429   -1.1001   -0.0014 C   0  0  0  0  0  0  0  0  0  0  0  0
    2.5268    2.5320    0.7498 C   0  0  0  0  0  0  0  0  0  0  0  0
    1.0591    2.1191    0.7888 C   0  0  0  0  0  0  0  0  0  0  0  0
   -4.5289   -0.7752    0.4480 C   0  0  0  0  0  0  0  0  0  0  0  0
   -2.9296   -2.4414   -0.2592 C   0  0  0  0  0  0  0  0  0  0  0  0
   -5.4970   -1.7715    0.5969 C   0  0  0  0  0  0  0  0  0  0  0  0
   -3.8934   -3.4368   -0.0963 C   0  0  0  0  0  0  0  0  0  0  0  0
   -5.1775   -3.1013    0.3274 C   0  0  0  0  0  0  0  0  0  0  0  0
   -0.7309   -3.1222    0.3393 C   0  0  0  0  0  0  0  0  0  0  0  0
    5.5273   -2.2820   -1.8855 H   0  0  0  0  0  0  0  0  0  0  0  0
    6.5314   -1.9430   -0.4720 H   0  0  0  0  0  0  0  0  0  0  0  0
    2.3564   -1.2862    0.0161 H   0  0  0  0  0  0  0  0  0  0  0  0
    2.8677   -1.8481   -1.5763 H   0  0  0  0  0  0  0  0  0  0  0  0
   -4.4928    2.0630   -1.4563 H   0  0  0  0  0  0  0  0  0  0  0  0
   -3.5580    0.7763   -2.2330 H   0  0  0  0  0  0  0  0  0  0  0  0
    4.4059   -0.1604   -2.3942 H   0  0  0  0  0  0  0  0  0  0  0  0
    5.6497    0.5586   -1.3659 H   0  0  0  0  0  0  0  0  0  0  0  0
    5.8270   -0.1401    1.0772 H   0  0  0  0  0  0  0  0  0  0  0  0
    4.6845   -1.3083    1.7438 H   0  0  0  0  0  0  0  0  0  0  0  0
   -2.7856    4.1384   -0.6225 H   0  0  0  0  0  0  0  0  0  0  0  0
   -1.1574    4.0403   -1.3443 H   0  0  0  0  0  0  0  0  0  0  0  0
    5.1539   -4.2938   -0.7610 H   0  0  0  0  0  0  0  0  0  0  0  0
    5.4085   -3.5759    0.8306 H   0  0  0  0  0  0  0  0  0  0  0  0
    3.1714   -3.2369    1.0742 H   0  0  0  0  0  0  0  0  0  0  0  0
    2.8569   -3.9240   -0.5202 H   0  0  0  0  0  0  0  0  0  0  0  0
   -3.1933    3.3771   -2.8983 H   0  0  0  0  0  0  0  0  0  0  0  0
   -1.8206    2.2536   -2.8287 H   0  0  0  0  0  0  0  0  0  0  0  0
   -1.6254   -0.2158   -1.1106 H   0  0  0  0  0  0  0  0  0  0  0  0
   -1.4901   -0.1205    0.6526 H   0  0  0  0  0  0  0  0  0  0  0  0
   -4.3086    2.4349    0.9655 H   0  0  0  0  0  0  0  0  0  0  0  0
   -3.4232    1.2375    1.9048 H   0  0  0  0  0  0  0  0  0  0  0  0
   -1.9793    3.6414    1.5329 H   0  0  0  0  0  0  0  0  0  0  0  0
   -1.4034    2.0221    1.9128 H   0  0  0  0  0  0  0  0  0  0  0  0
    0.2828    4.1245    0.5045 H   0  0  0  0  0  0  0  0  0  0  0  0
    0.3943    3.6235    2.1862 H   0  0  0  0  0  0  0  0  0  0  0  0
    2.6523    3.3615    0.0437 H   0  0  0  0  0  0  0  0  0  0  0  0
    2.8295    2.9104    1.7332 H   0  0  0  0  0  0  0  0  0  0  0  0
    0.7872    1.7260   -0.1983 H   0  0  0  0  0  0  0  0  0  0  0  0
    0.9299    1.2902    1.4964 H   0  0  0  0  0  0  0  0  0  0  0  0
   -6.5005   -1.5188    0.9289 H   0  0  0  0  0  0  0  0  0  0  0  0
   -3.6506   -4.4762   -0.3007 H   0  0  0  0  0  0  0  0  0  0  0  0
   -5.9290   -3.8758    0.4495 H   0  0  0  0  0  0  0  0  0  0  0  0
    0.2166   -3.3671   -0.1476 H   0  0  0  0  0  0  0  0  0  0  0  0
   -1.0626   -3.9936    0.9128 H   0  0  0  0  0  0  0  0  0  0  0  0
   -0.5681   -2.2739    1.0103 H   0  0  0  0  0  0  0  0  0  0  0  0
  1 19  1  0  0  0  0
  1 27  1  0  0  0  0
  2 21  2  0  0  0  0
  3 22  2  0  0  0  0
  4 28  1  0  0  0  0
  4 32  1  0  0  0  0
  5  8  1  0  0  0  0
  5 14  1  0  0  0  0
  5 20  1  0  0  0  0
  6 21  1  0  0  0  0
  6 22  1  0  0  0  0
  6 25  1  0  0  0  0
  7  9  1  0  0  0  0
  7 10  1  0  0  0  0
  7 12  1  0  0  0  0
  7 13  1  0  0  0  0
  8 11  1  0  0  0  0
  8 18  1  0  0  0  0
  8 19  1  0  0  0  0
  9 15  1  0  0  0  0
  9 33  1  0  0  0  0
  9 34  1  0  0  0  0
 10 16  1  0  0  0  0
 10 35  1  0  0  0  0
 10 36  1  0  0  0  0
 11 17  1  0  0  0  0
 11 37  1  0  0  0  0
 11 38  1  0  0  0  0
 12 21  1  0  0  0  0
 12 39  1  0  0  0  0
 12 40  1  0  0  0  0
 13 22  1  0  0  0  0
 13 41  1  0  0  0  0
 13 42  1  0  0  0  0
 14 17  1  0  0  0  0
 14 43  1  0  0  0  0
 14 44  1  0  0  0  0
 15 16  1  0  0  0  0
 15 45  1  0  0  0  0
 15 46  1  0  0  0  0
 16 47  1  0  0  0  0
 16 48  1  0  0  0  0
 17 49  1  0  0  0  0
 17 50  1  0  0  0  0
 18 24  1  0  0  0  0
 18 51  1  0  0  0  0
 18 52  1  0  0  0  0
 19 53  1  0  0  0  0
 19 54  1  0  0  0  0
 20 23  1  0  0  0  0
 20 55  1  0  0  0  0
 20 56  1  0  0  0  0
 23 26  1  0  0  0  0
 23 57  1  0  0  0  0
 23 58  1  0  0  0  0
 24 27  2  0  0  0  0
 24 28  1  0  0  0  0
 25 26  1  0  0  0  0
 25 59  1  0  0  0  0
 25 60  1  0  0  0  0
 26 61  1  0  0  0  0
 26 62  1  0  0  0  0
 27 29  1  0  0  0  0
 28 30  2  0  0  0  0
 29 31  2  0  0  0  0
 29 63  1  0  0  0  0
 30 31  1  0  0  0  0
 30 64  1  0  0  0  0
 31 65  1  0  0  0  0
 32 66  1  0  0  0  0
 32 67  1  0  0  0  0
 32 68  1  0  0  0  0
M  END
> <PUBCHEM_COMPOUND_CID>
9911120

> <PUBCHEM_CONFORMER_RMSD>
1

> <PUBCHEM_CONFORMER_DIVERSEORDER>
1
228
266
282
223
274
50
255
6
360
206
119
320
23
173
371
380
216
150
2
132
281
312
343
107
224
233
355
3
259
116
299
29
335
359
15
365
298
287
163
336
256
197
352
303
385
104
55
147
148
126
165
333
118
207
310
122
102
383
169
178
290
76
317
74
265
10
106
12
280
300
154
177
172
68
94
257
71
149
48
273
311
313
363
340
278
370
42
24
379
60
316
376
241
125
239
322
276
128
329
77
234
293
180
361
9
47
388
109
305
356
210
36
174
315
270
237
90
89
32
367
58
258
208
232
111
269
139
245
31
381
222
103
295
347
175
351
268
120
179
5
225
201
185
183
387
219
323
27
251
181
297
153
187
286
19
21
100
87
98
369
247
194
238
301
214
364
93
321
218
39
28
152
63
38
141
96
344
113
20
330
151
348
26
263
200
325
331
160
57
345
170
7
240
140
334
127
248
8
372
209
252
285
108
137
45
112
190
353
184
362
191
16
307
231
99
144
328
368
136
73
167
203
41
341
254
271
164
192
354
25
105
65
142
35
375
54
242
43
95
11
83
13
91
81
52
53
130
213
277
374
332
124
85
143
249
386
243
346
88
121
168
67
33
166
215
275
212
366
339
70
62
186
244
22
158
327
134
389
131
30
46
337
319
114
171
40
196
342
382
4
101
145
49
358
262
250
272
51
97
146
17
64
288
373
357
110
289
230
291
84
34
189
157
227
384
294
18
229
156
318
349
390
296
350
193
302
235
66
188
92
205
308
283
75
378
86
309
56
253
123
326
202
220
182
80
199
69
61
314
79
264
159
162
204
155
260
306
14
78
261
117
72
304
135
338
246
59
37
236
82
198
115
195
221
217
138
133
176
44
279
161
129
267
324
211
226
292
284
377

> <PUBCHEM_MMFF94_PARTIAL_CHARGES>
26
1 -0.36
12 0.06
13 0.06
14 0.27
18 0.14
19 0.28
2 -0.57
20 0.27
21 0.57
22 0.57
24 -0.14
25 0.3
27 0.08
28 0.08
29 -0.15
3 -0.57
30 -0.15
31 -0.15
32 0.28
4 -0.36
5 -0.81
6 -0.42
63 0.15
64 0.15
65 0.15
8 0.27

> <PUBCHEM_EFFECTIVE_ROTOR_COUNT>
8.8

> <PUBCHEM_PHARMACOPHORE_FEATURES>
10
1 1 acceptor
1 2 acceptor
1 3 acceptor
1 4 acceptor
1 5 cation
5 5 8 11 14 17 rings
5 7 9 10 15 16 rings
6 1 8 18 19 24 27 rings
6 24 27 28 29 30 31 rings
6 6 7 12 13 21 22 rings

> <PUBCHEM_HEAVY_ATOM_COUNT>
32

> <PUBCHEM_ATOM_DEF_STEREO_COUNT>
0

> <PUBCHEM_ATOM_UDEF_STEREO_COUNT>
1

> <PUBCHEM_BOND_DEF_STEREO_COUNT>
0

> <PUBCHEM_BOND_UDEF_STEREO_COUNT>
0

> <PUBCHEM_ISOTOPIC_ATOM_COUNT>
0

> <PUBCHEM_COMPONENT_COUNT>
1

> <PUBCHEM_CACTVS_TAUTO_COUNT>
1

> <PUBCHEM_CONFORMER_ID>
00973B5000000001

> <PUBCHEM_MMFF94_ENERGY>
89.1625

> <PUBCHEM_FEATURE_SELFOVERLAP>
50.793

> <PUBCHEM_SHAPE_FINGERPRINT>
10670039 82 18335710463789966142
10928967 22 18201158857479186862
11135609 12 18411414004041522680
11315621 136 18408891728957673196
12422481 6 18341625845179785659
12925494 130 18270400456778983555
13402501 40 18343023293702976938
13560911 43 18259987085052658170
13561361 72 18410006667232542970
1361 87 18199753531574394254
14114206 34 14707210959507153676
14910302 57 18411414012214582681
14950920 106 17846225436039606801
15001296 14 18334857216669700506
150020 26 18201436922595099854
15274700 259 17969204678853039213
15320291 9 18194396689028254007
15320467 1 16323152607434190794
17909252 39 18343588434617298906
1813 80 17752758302400349645
20764821 26 18413670197126716338
20775530 9 18409726257655245390
21315759 227 18411692167466611356
23559900 14 18340199696550920088
338550 245 18407763625263109182
4394409 98 17034981340029449096
44062 13 18261951847484939037
445580 102 18342741780176926182
463206 1 18410862074573009450
508706 21 18335689503953552455
56633871 153 18268433602376323883
5776283 40 17906188583273203732
613672 6 18198317638077113248
7970288 3 18340773654405411488

> <PUBCHEM_SHAPE_MULTIPOLES>
625.11
13.45
5.39
1.57
4.6
1.27
0.1
9.06
0.08
-2.12
0.32
0.76
-1.4
1.55

> <PUBCHEM_SHAPE_SELFOVERLAP>
1338.326

> <PUBCHEM_SHAPE_VOLUME>
346.6

> <PUBCHEM_COORDINATE_TYPE>
2
5
10

$$$$
