15181802
  -OEChem-03242009173D

 68 72  0     0  0  0  0  0  0999 V2000
   -4.9491    2.2757    0.2637 O   0  0  0  0  0  0  0  0  0  0  0  0
   -8.9240   -0.1422   -0.3422 O   0  0  0  0  0  0  0  0  0  0  0  0
    0.2873    1.1794    0.8678 N   0  0  0  0  0  0  0  0  0  0  0  0
   -3.5630   -0.3321   -0.2331 N   0  0  0  0  0  0  0  0  0  0  0  0
   -6.9057   -1.2866   -0.5207 N   0  0  0  0  0  0  0  0  0  0  0  0
   -4.6343   -2.2249   -0.6507 N   0  0  0  0  0  0  0  0  0  0  0  0
   -6.9531    1.0858   -0.0348 N   0  0  0  0  0  0  0  0  0  0  0  0
    3.0742    0.3569    0.4787 C   0  0  0  0  0  0  0  0  0  0  0  0
    2.5691    1.7545    0.1045 C   0  0  0  0  0  0  0  0  0  0  0  0
    1.9105   -0.6397    0.4472 C   0  0  0  0  0  0  0  0  0  0  0  0
    4.2012   -0.0861   -0.4502 C   0  0  0  0  0  0  0  0  0  0  0  0
    1.3734    2.1634    0.9673 C   0  0  0  0  0  0  0  0  0  0  0  0
    0.7363   -0.1515    1.2982 C   0  0  0  0  0  0  0  0  0  0  0  0
   -0.8672    1.6097    1.6563 C   0  0  0  0  0  0  0  0  0  0  0  0
    4.7789   -1.4607   -0.1219 C   0  0  0  0  0  0  0  0  0  0  0  0
    5.3012    0.9628   -0.5880 C   0  0  0  0  0  0  0  0  0  0  0  0
   -2.0355    0.6469    1.4559 C   0  0  0  0  0  0  0  0  0  0  0  0
   -2.4399    0.5738   -0.0162 C   0  0  0  0  0  0  0  0  0  0  0  0
    5.2947   -2.2239   -1.1462 C   0  0  0  0  0  0  0  0  0  0  0  0
    5.1960    1.9060   -1.5869 C   0  0  0  0  0  0  0  0  0  0  0  0
    4.7645   -1.8897    1.1871 C   0  0  0  0  0  0  0  0  0  0  0  0
    6.3615    0.9309    0.2915 C   0  0  0  0  0  0  0  0  0  0  0  0
    5.8227   -3.4797   -0.8465 C   0  0  0  0  0  0  0  0  0  0  0  0
    6.2012    2.8649   -1.7129 C   0  0  0  0  0  0  0  0  0  0  0  0
    5.2927   -3.1456    1.4868 C   0  0  0  0  0  0  0  0  0  0  0  0
    7.3666    1.8898    0.1655 C   0  0  0  0  0  0  0  0  0  0  0  0
   -4.8817   -0.0178   -0.2054 C   0  0  0  0  0  0  0  0  0  0  0  0
    5.8218   -3.9404    0.4699 C   0  0  0  0  0  0  0  0  0  0  0  0
    7.2865    2.8568   -0.8367 C   0  0  0  0  0  0  0  0  0  0  0  0
   -3.4525   -1.6624   -0.5027 C   0  0  0  0  0  0  0  0  0  0  0  0
   -5.5216   -1.1990   -0.4650 C   0  0  0  0  0  0  0  0  0  0  0  0
   -5.5414    1.2252    0.0320 C   0  0  0  0  0  0  0  0  0  0  0  0
   -7.6884   -0.1249   -0.3040 C   0  0  0  0  0  0  0  0  0  0  0  0
   -7.5417   -2.5678   -0.8012 C   0  0  0  0  0  0  0  0  0  0  0  0
   -7.7413    2.2928    0.1924 C   0  0  0  0  0  0  0  0  0  0  0  0
    3.4358    0.4458    1.5115 H   0  0  0  0  0  0  0  0  0  0  0  0
    3.3423    2.5142    0.2588 H   0  0  0  0  0  0  0  0  0  0  0  0
    2.2717    1.7852   -0.9517 H   0  0  0  0  0  0  0  0  0  0  0  0
    1.5669   -0.7782   -0.5871 H   0  0  0  0  0  0  0  0  0  0  0  0
    2.1979   -1.6294    0.8128 H   0  0  0  0  0  0  0  0  0  0  0  0
    3.7495   -0.1993   -1.4494 H   0  0  0  0  0  0  0  0  0  0  0  0
    1.6951    2.2867    2.0101 H   0  0  0  0  0  0  0  0  0  0  0  0
    1.0208    3.1417    0.6181 H   0  0  0  0  0  0  0  0  0  0  0  0
   -0.0428   -0.9081    1.1717 H   0  0  0  0  0  0  0  0  0  0  0  0
    1.0241   -0.1473    2.3578 H   0  0  0  0  0  0  0  0  0  0  0  0
   -0.6227    1.6722    2.7244 H   0  0  0  0  0  0  0  0  0  0  0  0
   -1.1835    2.6115    1.3388 H   0  0  0  0  0  0  0  0  0  0  0  0
   -1.8517   -0.3473    1.8759 H   0  0  0  0  0  0  0  0  0  0  0  0
   -2.8869    1.0336    2.0324 H   0  0  0  0  0  0  0  0  0  0  0  0
   -2.7075    1.5560   -0.4175 H   0  0  0  0  0  0  0  0  0  0  0  0
   -1.6226    0.1913   -0.6390 H   0  0  0  0  0  0  0  0  0  0  0  0
    5.3011   -1.8725   -2.1734 H   0  0  0  0  0  0  0  0  0  0  0  0
    4.3622    1.9174   -2.2818 H   0  0  0  0  0  0  0  0  0  0  0  0
    4.3912   -1.2994    2.0148 H   0  0  0  0  0  0  0  0  0  0  0  0
    6.4481    0.2133    1.0986 H   0  0  0  0  0  0  0  0  0  0  0  0
    6.2355   -4.0984   -1.6380 H   0  0  0  0  0  0  0  0  0  0  0  0
    6.1398    3.6166   -2.4944 H   0  0  0  0  0  0  0  0  0  0  0  0
    5.2981   -3.5025    2.5127 H   0  0  0  0  0  0  0  0  0  0  0  0
    8.2090    1.8877    0.8512 H   0  0  0  0  0  0  0  0  0  0  0  0
    6.2344   -4.9175    0.7036 H   0  0  0  0  0  0  0  0  0  0  0  0
    8.0686    3.6040   -0.9342 H   0  0  0  0  0  0  0  0  0  0  0  0
   -2.5007   -2.1705   -0.5785 H   0  0  0  0  0  0  0  0  0  0  0  0
   -8.6311   -2.4813   -0.8128 H   0  0  0  0  0  0  0  0  0  0  0  0
   -7.2528   -3.2854   -0.0270 H   0  0  0  0  0  0  0  0  0  0  0  0
   -7.2056   -2.9251   -1.7795 H   0  0  0  0  0  0  0  0  0  0  0  0
   -8.3559    2.4799   -0.6940 H   0  0  0  0  0  0  0  0  0  0  0  0
   -7.1240    3.1708    0.3948 H   0  0  0  0  0  0  0  0  0  0  0  0
   -8.4104    2.1183    1.0410 H   0  0  0  0  0  0  0  0  0  0  0  0
  1 32  2  0  0  0  0
  2 33  2  0  0  0  0
  3 12  1  0  0  0  0
  3 13  1  0  0  0  0
  3 14  1  0  0  0  0
  4 18  1  0  0  0  0
  4 27  1  0  0  0  0
  4 30  1  0  0  0  0
  5 31  1  0  0  0  0
  5 33  1  0  0  0  0
  5 34  1  0  0  0  0
  6 30  2  0  0  0  0
  6 31  1  0  0  0  0
  7 32  1  0  0  0  0
  7 33  1  0  0  0  0
  7 35  1  0  0  0  0
  8  9  1  0  0  0  0
  8 10  1  0  0  0  0
  8 11  1  0  0  0  0
  8 36  1  0  0  0  0
  9 12  1  0  0  0  0
  9 37  1  0  0  0  0
  9 38  1  0  0  0  0
 10 13  1  0  0  0  0
 10 39  1  0  0  0  0
 10 40  1  0  0  0  0
 11 15  1  0  0  0  0
 11 16  1  0  0  0  0
 11 41  1  0  0  0  0
 12 42  1  0  0  0  0
 12 43  1  0  0  0  0
 13 44  1  0  0  0  0
 13 45  1  0  0  0  0
 14 17  1  0  0  0  0
 14 46  1  0  0  0  0
 14 47  1  0  0  0  0
 15 19  2  0  0  0  0
 15 21  1  0  0  0  0
 16 20  2  0  0  0  0
 16 22  1  0  0  0  0
 17 18  1  0  0  0  0
 17 48  1  0  0  0  0
 17 49  1  0  0  0  0
 18 50  1  0  0  0  0
 18 51  1  0  0  0  0
 19 23  1  0  0  0  0
 19 52  1  0  0  0  0
 20 24  1  0  0  0  0
 20 53  1  0  0  0  0
 21 25  2  0  0  0  0
 21 54  1  0  0  0  0
 22 26  2  0  0  0  0
 22 55  1  0  0  0  0
 23 28  2  0  0  0  0
 23 56  1  0  0  0  0
 24 29  2  0  0  0  0
 24 57  1  0  0  0  0
 25 28  1  0  0  0  0
 25 58  1  0  0  0  0
 26 29  1  0  0  0  0
 26 59  1  0  0  0  0
 27 31  2  0  0  0  0
 27 32  1  0  0  0  0
 28 60  1  0  0  0  0
 29 61  1  0  0  0  0
 30 62  1  0  0  0  0
 34 63  1  0  0  0  0
 34 64  1  0  0  0  0
 34 65  1  0  0  0  0
 35 66  1  0  0  0  0
 35 67  1  0  0  0  0
 35 68  1  0  0  0  0
M  END
> <PUBCHEM_COMPOUND_CID>
15181802

> <PUBCHEM_CONFORMER_RMSD>
1

> <PUBCHEM_CONFORMER_DIVERSEORDER>
3
107
63
75
134
73
42
109
17
110
20
38
95
138
89
136
121
112
79
113
69
94
106
116
114
80
129
55
126
25
115
97
83
16
62
120
57
28
108
147
33
49
150
140
122
88
135
32
128
13
67
102
90
125
96
60
86
149
68
76
2
123
24
145
7
53
92
46
44
54
47
64
82
66
133
36
78
137
119
65
43
50
71
10
81
91
105
6
31
100
85
59
56
9
131
84
40
72
143
146
21
99
41
87
61
37
34
26
19
98
70
118
48
103
130
124
4
15
93
127
45
104
12
111
30
117
144
23
14
35
1
151
22
101
29
39
58
74
132
8
51
18
142
141
52
139
5
11
27
148
77

> <PUBCHEM_MMFF94_PARTIAL_CHARGES>
42
1 -0.57
11 0.29
12 0.27
13 0.27
14 0.27
15 -0.14
16 -0.14
18 0.26
19 -0.15
2 -0.57
20 -0.15
21 -0.15
22 -0.15
23 -0.15
24 -0.15
25 -0.15
26 -0.15
27 -0.24
28 -0.15
29 -0.15
3 -0.81
30 0.04
31 0.29
32 0.71
33 0.69
34 0.3
35 0.3
4 0.05
5 -0.42
52 0.15
53 0.15
54 0.15
55 0.15
56 0.15
57 0.15
58 0.15
59 0.15
6 -0.57
60 0.15
61 0.15
62 0.15
7 -0.42

> <PUBCHEM_EFFECTIVE_ROTOR_COUNT>
8.2

> <PUBCHEM_PHARMACOPHORE_FEATURES>
9
1 1 acceptor
1 2 acceptor
1 3 cation
3 4 6 30 cation
5 4 6 27 30 31 rings
6 15 19 21 23 25 28 rings
6 16 20 22 24 26 29 rings
6 3 8 9 10 12 13 rings
6 5 7 27 31 32 33 rings

> <PUBCHEM_HEAVY_ATOM_COUNT>
35

> <PUBCHEM_ATOM_DEF_STEREO_COUNT>
0

> <PUBCHEM_ATOM_UDEF_STEREO_COUNT>
0

> <PUBCHEM_BOND_DEF_STEREO_COUNT>
0

> <PUBCHEM_BOND_UDEF_STEREO_COUNT>
0

> <PUBCHEM_ISOTOPIC_ATOM_COUNT>
0

> <PUBCHEM_COMPONENT_COUNT>
1

> <PUBCHEM_CACTVS_TAUTO_COUNT>
1

> <PUBCHEM_CONFORMER_ID>
00E7A7EA00000003

> <PUBCHEM_MMFF94_ENERGY>
82.4673

> <PUBCHEM_FEATURE_SELFOVERLAP>
45.789

> <PUBCHEM_SHAPE_FINGERPRINT>
10 15 10737294536953450889
10299344 5 18410011052942466477
10595046 47 18410295809089899728
10675989 125 18186518783595517970
11135609 127 18190179173763564132
11135609 187 18410294752638448776
11204353 107 17841993583636264850
11408170 132 18335989670823718332
11475781 23 16877948260711859186
11719270 70 17775564195825525503
11991303 11 14996297911246819235
12522641 33 18260551165220346388
13540713 5 18199484168907196392
1361 4 18411418431699494047
13782708 43 18410568483931724647
14118638 360 18342462551594789544
15001296 14 18260544507330818402
15082195 135 18411705413288554232
15183329 4 18202286905217862633
15230672 131 18267860593830956835
15276724 80 18260828181193608741
15336146 87 13398636052164440938
15684393 108 18410291449940583831
1577012 14 18341895195173415751
19841028 212 18340205198642001002
20157964 124 18186803587144891592
23191077 185 18191307074476359569
23522609 53 18126875778977404353
23559900 14 18201991166982076297
255183 451 18196097651966910782
3004659 81 18411419467192566954
4073 2 18114748243037214178
4098825 35 18334292054919118637
4149490 64 18040155132657884074
4197921 191 18412265030025119353
439807 62 18341894087130141915
5085150 59 17489300846629818207
5265222 85 18128818723702788797
6697151 62 17060040572149029937
99344 41 18408885157225206606

> <PUBCHEM_SHAPE_MULTIPOLES>
683.64
27.84
4.02
1.3
36.37
2.38
0.11
0.48
-7.52
-7.56
-0.44
-1.46
-0.12
-3.38

> <PUBCHEM_SHAPE_SELFOVERLAP>
1482.523

> <PUBCHEM_SHAPE_VOLUME>
371.8

> <PUBCHEM_COORDINATE_TYPE>
2
5
10

$$$$
