10381889
  -OEChem-03232009343D

 44 47  0     1  0  0  0  0  0999 V2000
   -3.7396   -3.8948   -1.1555 Cl  0  0  0  0  0  0  0  0  0  0  0  0
    0.8594   -1.5850   -0.1377 O   0  0  0  0  0  0  0  0  0  0  0  0
   -0.0777   -0.6642    0.3683 N   0  0  3  0  0  0  0  0  0  0  0  0
    4.5191   -1.2177    0.1229 N   0  0  0  0  0  0  0  0  0  0  0  0
    0.5689    0.4549    1.0530 C   0  0  1  0  0  0  0  0  0  0  0  0
    2.0230   -0.0005    1.1075 C   0  0  0  0  0  0  0  0  0  0  0  0
    2.1151   -0.8931   -0.1120 C   0  0  1  0  0  0  0  0  0  0  0  0
    0.2509    1.7547    0.3412 C   0  0  0  0  0  0  0  0  0  0  0  0
    3.2486   -1.8980   -0.0288 C   0  0  0  0  0  0  0  0  0  0  0  0
   -1.4528   -0.8699    0.2279 C   0  0  0  0  0  0  0  0  0  0  0  0
   -1.0793    2.2261    0.4011 C   0  0  0  0  0  0  0  0  0  0  0  0
   -2.1237    1.4468    1.1668 C   0  0  0  0  0  0  0  0  0  0  0  0
   -2.4397    0.0847    0.5794 C   0  0  0  0  0  0  0  0  0  0  0  0
    1.1933    2.4939   -0.3881 C   0  0  0  0  0  0  0  0  0  0  0  0
   -1.9012   -2.0950   -0.3175 C   0  0  0  0  0  0  0  0  0  0  0  0
   -1.4335    3.4137   -0.2569 C   0  0  0  0  0  0  0  0  0  0  0  0
   -3.8060   -0.2277    0.4063 C   0  0  0  0  0  0  0  0  0  0  0  0
    0.8295    3.6758   -1.0370 C   0  0  0  0  0  0  0  0  0  0  0  0
   -0.4814    4.1357   -0.9713 C   0  0  0  0  0  0  0  0  0  0  0  0
   -3.2560   -2.3824   -0.4919 C   0  0  0  0  0  0  0  0  0  0  0  0
    4.7772   -0.3288   -1.0155 C   0  0  0  0  0  0  0  0  0  0  0  0
    5.6165   -2.1812    0.2638 C   0  0  0  0  0  0  0  0  0  0  0  0
   -4.2107   -1.4480   -0.1258 C   0  0  0  0  0  0  0  0  0  0  0  0
    0.2291    0.5308    2.0937 H   0  0  0  0  0  0  0  0  0  0  0  0
    2.7637    0.8015    1.1480 H   0  0  0  0  0  0  0  0  0  0  0  0
    2.1570   -0.6076    2.0139 H   0  0  0  0  0  0  0  0  0  0  0  0
    2.1583   -0.3132   -1.0410 H   0  0  0  0  0  0  0  0  0  0  0  0
    3.2300   -2.5444   -0.9169 H   0  0  0  0  0  0  0  0  0  0  0  0
    3.0689   -2.5670    0.8238 H   0  0  0  0  0  0  0  0  0  0  0  0
   -1.8177    1.3289    2.2137 H   0  0  0  0  0  0  0  0  0  0  0  0
   -3.0402    2.0501    1.2150 H   0  0  0  0  0  0  0  0  0  0  0  0
    2.2245    2.1678   -0.4758 H   0  0  0  0  0  0  0  0  0  0  0  0
   -1.1745   -2.8528   -0.6088 H   0  0  0  0  0  0  0  0  0  0  0  0
   -2.4553    3.7826   -0.2181 H   0  0  0  0  0  0  0  0  0  0  0  0
   -4.5726    0.4923    0.6857 H   0  0  0  0  0  0  0  0  0  0  0  0
    1.5728    4.2355   -1.5977 H   0  0  0  0  0  0  0  0  0  0  0  0
   -0.7624    5.0539   -1.4783 H   0  0  0  0  0  0  0  0  0  0  0  0
    5.7914    0.0840   -0.9518 H   0  0  0  0  0  0  0  0  0  0  0  0
    4.6892   -0.8483   -1.9768 H   0  0  0  0  0  0  0  0  0  0  0  0
    4.1178    0.5435   -1.0178 H   0  0  0  0  0  0  0  0  0  0  0  0
    5.4497   -2.8281    1.1323 H   0  0  0  0  0  0  0  0  0  0  0  0
    6.5654   -1.6619    0.4384 H   0  0  0  0  0  0  0  0  0  0  0  0
    5.7252   -2.8148   -0.6239 H   0  0  0  0  0  0  0  0  0  0  0  0
   -5.2711   -1.6507   -0.2484 H   0  0  0  0  0  0  0  0  0  0  0  0
  1 20  1  0  0  0  0
  2  3  1  0  0  0  0
  2  7  1  0  0  0  0
  3  5  1  0  0  0  0
  3 10  1  0  0  0  0
  4  9  1  0  0  0  0
  4 21  1  0  0  0  0
  4 22  1  0  0  0  0
  5  6  1  0  0  0  0
  5  8  1  0  0  0  0
  5 24  1  0  0  0  0
  6  7  1  0  0  0  0
  6 25  1  0  0  0  0
  6 26  1  0  0  0  0
  7  9  1  0  0  0  0
  7 27  1  0  0  0  0
  8 11  1  0  0  0  0
  8 14  2  0  0  0  0
  9 28  1  0  0  0  0
  9 29  1  0  0  0  0
 10 13  2  0  0  0  0
 10 15  1  0  0  0  0
 11 12  1  0  0  0  0
 11 16  2  0  0  0  0
 12 13  1  0  0  0  0
 12 30  1  0  0  0  0
 12 31  1  0  0  0  0
 13 17  1  0  0  0  0
 14 18  1  0  0  0  0
 14 32  1  0  0  0  0
 15 20  2  0  0  0  0
 15 33  1  0  0  0  0
 16 19  1  0  0  0  0
 16 34  1  0  0  0  0
 17 23  2  0  0  0  0
 17 35  1  0  0  0  0
 18 19  2  0  0  0  0
 18 36  1  0  0  0  0
 19 37  1  0  0  0  0
 20 23  1  0  0  0  0
 21 38  1  0  0  0  0
 21 39  1  0  0  0  0
 21 40  1  0  0  0  0
 22 41  1  0  0  0  0
 22 42  1  0  0  0  0
 22 43  1  0  0  0  0
 23 44  1  0  0  0  0
M  END
> <PUBCHEM_COMPOUND_CID>
10381889

> <PUBCHEM_CONFORMER_RMSD>
0.6

> <PUBCHEM_CONFORMER_DIVERSEORDER>
2
10
12
8
3
14
5
16
4
9
11
6
1
18
19
15
7
13
17

> <PUBCHEM_MMFF94_PARTIAL_CHARGES>
29
1 -0.18
10 0.1
11 -0.14
12 0.29
13 -0.14
14 -0.15
15 -0.15
16 -0.15
17 -0.15
18 -0.15
19 -0.15
2 -0.26
20 0.18
21 0.27
22 0.27
23 -0.15
3 -0.49
32 0.15
33 0.15
34 0.15
35 0.15
36 0.15
37 0.15
4 -0.81
44 0.15
5 0.51
7 0.28
8 -0.14
9 0.27

> <PUBCHEM_EFFECTIVE_ROTOR_COUNT>
2.8

> <PUBCHEM_PHARMACOPHORE_FEATURES>
5
1 4 cation
5 2 3 5 6 7 rings
6 10 13 15 17 20 23 rings
6 8 11 14 16 18 19 rings
7 3 5 8 10 11 12 13 rings

> <PUBCHEM_HEAVY_ATOM_COUNT>
23

> <PUBCHEM_ATOM_DEF_STEREO_COUNT>
0

> <PUBCHEM_ATOM_UDEF_STEREO_COUNT>
2

> <PUBCHEM_BOND_DEF_STEREO_COUNT>
0

> <PUBCHEM_BOND_UDEF_STEREO_COUNT>
0

> <PUBCHEM_ISOTOPIC_ATOM_COUNT>
0

> <PUBCHEM_COMPONENT_COUNT>
1

> <PUBCHEM_CACTVS_TAUTO_COUNT>
1

> <PUBCHEM_CONFORMER_ID>
009E6A4100000002

> <PUBCHEM_MMFF94_ENERGY>
76.9338

> <PUBCHEM_FEATURE_SELFOVERLAP>
25.436

> <PUBCHEM_SHAPE_FINGERPRINT>
10319926 262 18051670181035023730
10411042 1 18409449215074754275
10871710 139 18262252010064580804
11014199 57 18340488988252461187
11045515 52 18260827111466364893
11069576 57 17551492767296766711
11315621 246 18270976656775663286
11833330 49 18335417928892412856
12403814 3 18192163593996752408
12553582 1 18335413565274491595
12788726 201 18188767219774233010
13004483 165 18263636282129183923
13009979 54 18058745722309593355
13140716 1 18342746255807200771
13540713 5 17984714569873260971
138480 1 15167416687861873525
13899415 180 18266436854299235534
14508225 48 18411125935788748685
14790565 3 17834684789969879057
14863182 85 17549248689485794761
14910302 57 17985842427947548590
15042514 8 18265901250222869498
16087824 20 18192712238300937837
17357779 13 18270379625665624661
17492 89 18051689138493373903
17539 30 18338504232119228196
17686467 74 18341607171041985746
1813 80 18335691793186854376
19141452 34 18272093747218739033
20101258 96 18262820521778974898
20600515 1 18130801035492831877
21029758 27 18336559256384865545
21285901 2 18128826239574199975
21344244 246 17833552675697916276
221490 88 18048600610014186867
22182313 1 18265310928480281072
22907989 373 18118114784226933348
23114952 82 17901648690876100815
23227448 37 18193278482050598604
23366157 5 17972875044937571411
23402539 116 18339921524108998774
23557571 272 18129109926944156566
23559900 14 18125989706208065467
23566358 27 17976830001707103603
238 59 17399511716085115659
25147074 1 17914068735811897835
255183 451 18126571343068541039
3060560 45 17181359830279778821
3178227 256 18337690637588142507
335352 9 18413670197854547879
352729 6 17400917497076996313
394222 165 16889459279829699409
397830 11 18128232530252369946
4280585 95 18337659893315431722
4409770 3 18120082884333749101
46194498 28 17756680268961189791
531348 171 17903928756039112666
70251023 43 18192989551037445139
7164475 11 18335986351277916518
7471813 234 18333452054121416814
81228 2 18337952294736221817
9709674 26 18048873297709485875
9925002 15 18336845120765866572

> <PUBCHEM_SHAPE_MULTIPOLES>
459.37
8.21
5.12
1.05
7.02
3.61
-0.02
-10.53
-1
-1.64
-2.22
-0.06
0.22
-1.4

> <PUBCHEM_SHAPE_SELFOVERLAP>
989.185

> <PUBCHEM_SHAPE_VOLUME>
254.3

> <PUBCHEM_COORDINATE_TYPE>
2
5
10

$$$$
