10369004
  -OEChem-03242009183D

 67 71  0     0  0  0  0  0  0999 V2000
   -4.4945   -5.5598    0.2001 F   0  0  0  0  0  0  0  0  0  0  0  0
   -8.5029    2.7519   -1.0380 F   0  0  0  0  0  0  0  0  0  0  0  0
    4.2603   -0.2492   -1.9714 O   0  0  0  0  0  0  0  0  0  0  0  0
    8.0640   -2.4335   -0.3059 O   0  0  0  0  0  0  0  0  0  0  0  0
   -2.6989    0.5023    0.0706 N   0  0  0  0  0  0  0  0  0  0  0  0
   -0.1503    1.8670    0.0973 N   0  0  0  0  0  0  0  0  0  0  0  0
    4.7800    1.7831    0.1658 N   0  0  0  0  0  0  0  0  0  0  0  0
    7.4014   -0.4514    0.7170 N   0  0  0  0  0  0  0  0  0  0  0  0
    6.4690    1.6515    1.5922 N   0  0  0  0  0  0  0  0  0  0  0  0
    6.1618   -1.3618   -1.1541 N   0  0  0  0  0  0  0  0  0  0  0  0
   -1.5102   -0.1145    0.6721 C   0  0  0  0  0  0  0  0  0  0  0  0
   -2.6188    1.9653    0.1628 C   0  0  0  0  0  0  0  0  0  0  0  0
   -0.2310    0.4040    0.0060 C   0  0  0  0  0  0  0  0  0  0  0  0
   -1.3395    2.4847   -0.5023 C   0  0  0  0  0  0  0  0  0  0  0  0
   -3.9183    0.0081    0.7068 C   0  0  0  0  0  0  0  0  0  0  0  0
    1.0686    2.3605   -0.5407 C   0  0  0  0  0  0  0  0  0  0  0  0
    2.3014    1.7950    0.1611 C   0  0  0  0  0  0  0  0  0  0  0  0
   -4.0739   -1.4994    0.5702 C   0  0  0  0  0  0  0  0  0  0  0  0
   -5.1598    0.7506    0.2352 C   0  0  0  0  0  0  0  0  0  0  0  0
    3.5862    2.3184   -0.4802 C   0  0  0  0  0  0  0  0  0  0  0  0
   -4.7411   -2.1937    1.5586 C   0  0  0  0  0  0  0  0  0  0  0  0
   -5.5635    1.8785    0.9201 C   0  0  0  0  0  0  0  0  0  0  0  0
   -3.5433   -2.1267   -0.5385 C   0  0  0  0  0  0  0  0  0  0  0  0
   -5.8445    0.2740   -0.8642 C   0  0  0  0  0  0  0  0  0  0  0  0
    5.4449    0.6476   -0.1612 C   0  0  0  0  0  0  0  0  0  0  0  0
    6.4806    0.5874    0.7308 C   0  0  0  0  0  0  0  0  0  0  0  0
    5.4219    2.3584    1.2204 C   0  0  0  0  0  0  0  0  0  0  0  0
    5.1961   -0.3207   -1.1794 C   0  0  0  0  0  0  0  0  0  0  0  0
   -4.8839   -3.5756    1.4327 C   0  0  0  0  0  0  0  0  0  0  0  0
   -6.7013    2.5594    0.4870 C   0  0  0  0  0  0  0  0  0  0  0  0
   -3.6864   -3.5085   -0.6644 C   0  0  0  0  0  0  0  0  0  0  0  0
   -6.9822    0.9550   -1.2973 C   0  0  0  0  0  0  0  0  0  0  0  0
   -4.3567   -4.2330    0.3211 C   0  0  0  0  0  0  0  0  0  0  0  0
   -7.4106    2.0977   -0.6217 C   0  0  0  0  0  0  0  0  0  0  0  0
    7.2741   -1.4845   -0.2450 C   0  0  0  0  0  0  0  0  0  0  0  0
    8.4883   -0.4713    1.6878 C   0  0  0  0  0  0  0  0  0  0  0  0
    6.0129   -2.4166   -2.1514 C   0  0  0  0  0  0  0  0  0  0  0  0
   -1.4870   -1.2035    0.5793 H   0  0  0  0  0  0  0  0  0  0  0  0
   -1.4668    0.1057    1.7486 H   0  0  0  0  0  0  0  0  0  0  0  0
   -2.6467    2.3051    1.2067 H   0  0  0  0  0  0  0  0  0  0  0  0
   -3.4284    2.4534   -0.3882 H   0  0  0  0  0  0  0  0  0  0  0  0
   -0.1922    0.0678   -1.0389 H   0  0  0  0  0  0  0  0  0  0  0  0
    0.5870   -0.0821    0.5446 H   0  0  0  0  0  0  0  0  0  0  0  0
   -1.2988    3.5728   -0.3693 H   0  0  0  0  0  0  0  0  0  0  0  0
   -1.3787    2.2886   -1.5826 H   0  0  0  0  0  0  0  0  0  0  0  0
   -3.8290    0.1996    1.7889 H   0  0  0  0  0  0  0  0  0  0  0  0
    1.1012    3.4550   -0.4707 H   0  0  0  0  0  0  0  0  0  0  0  0
    1.0912    2.1022   -1.6076 H   0  0  0  0  0  0  0  0  0  0  0  0
    2.2837    2.0539    1.2276 H   0  0  0  0  0  0  0  0  0  0  0  0
    2.3459    0.7037    0.0962 H   0  0  0  0  0  0  0  0  0  0  0  0
    3.6378    2.0854   -1.5478 H   0  0  0  0  0  0  0  0  0  0  0  0
    3.6398    3.4104   -0.3904 H   0  0  0  0  0  0  0  0  0  0  0  0
   -5.1564   -1.6905    2.4266 H   0  0  0  0  0  0  0  0  0  0  0  0
   -5.0304    2.2421    1.7933 H   0  0  0  0  0  0  0  0  0  0  0  0
   -3.0413   -1.5917   -1.3389 H   0  0  0  0  0  0  0  0  0  0  0  0
   -5.5351   -0.5938   -1.4338 H   0  0  0  0  0  0  0  0  0  0  0  0
    5.0915    3.2807    1.6786 H   0  0  0  0  0  0  0  0  0  0  0  0
   -5.4063   -4.1399    2.1996 H   0  0  0  0  0  0  0  0  0  0  0  0
   -7.0369    3.4474    1.0145 H   0  0  0  0  0  0  0  0  0  0  0  0
   -3.2818   -4.0200   -1.5328 H   0  0  0  0  0  0  0  0  0  0  0  0
   -7.5320    0.5993   -2.1638 H   0  0  0  0  0  0  0  0  0  0  0  0
    8.0641   -0.4946    2.6964 H   0  0  0  0  0  0  0  0  0  0  0  0
    9.1295   -1.3464    1.5547 H   0  0  0  0  0  0  0  0  0  0  0  0
    9.0936    0.4318    1.5627 H   0  0  0  0  0  0  0  0  0  0  0  0
    5.9113   -3.3755   -1.6332 H   0  0  0  0  0  0  0  0  0  0  0  0
    5.1492   -2.2659   -2.8029 H   0  0  0  0  0  0  0  0  0  0  0  0
    6.9223   -2.4522   -2.7597 H   0  0  0  0  0  0  0  0  0  0  0  0
  1 33  1  0  0  0  0
  2 34  1  0  0  0  0
  3 28  2  0  0  0  0
  4 35  2  0  0  0  0
  5 11  1  0  0  0  0
  5 12  1  0  0  0  0
  5 15  1  0  0  0  0
  6 13  1  0  0  0  0
  6 14  1  0  0  0  0
  6 16  1  0  0  0  0
  7 20  1  0  0  0  0
  7 25  1  0  0  0  0
  7 27  1  0  0  0  0
  8 26  1  0  0  0  0
  8 35  1  0  0  0  0
  8 36  1  0  0  0  0
  9 26  1  0  0  0  0
  9 27  2  0  0  0  0
 10 28  1  0  0  0  0
 10 35  1  0  0  0  0
 10 37  1  0  0  0  0
 11 13  1  0  0  0  0
 11 38  1  0  0  0  0
 11 39  1  0  0  0  0
 12 14  1  0  0  0  0
 12 40  1  0  0  0  0
 12 41  1  0  0  0  0
 13 42  1  0  0  0  0
 13 43  1  0  0  0  0
 14 44  1  0  0  0  0
 14 45  1  0  0  0  0
 15 18  1  0  0  0  0
 15 19  1  0  0  0  0
 15 46  1  0  0  0  0
 16 17  1  0  0  0  0
 16 47  1  0  0  0  0
 16 48  1  0  0  0  0
 17 20  1  0  0  0  0
 17 49  1  0  0  0  0
 17 50  1  0  0  0  0
 18 21  2  0  0  0  0
 18 23  1  0  0  0  0
 19 22  2  0  0  0  0
 19 24  1  0  0  0  0
 20 51  1  0  0  0  0
 20 52  1  0  0  0  0
 21 29  1  0  0  0  0
 21 53  1  0  0  0  0
 22 30  1  0  0  0  0
 22 54  1  0  0  0  0
 23 31  2  0  0  0  0
 23 55  1  0  0  0  0
 24 32  2  0  0  0  0
 24 56  1  0  0  0  0
 25 26  2  0  0  0  0
 25 28  1  0  0  0  0
 27 57  1  0  0  0  0
 29 33  2  0  0  0  0
 29 58  1  0  0  0  0
 30 34  2  0  0  0  0
 30 59  1  0  0  0  0
 31 33  1  0  0  0  0
 31 60  1  0  0  0  0
 32 34  1  0  0  0  0
 32 61  1  0  0  0  0
 36 62  1  0  0  0  0
 36 63  1  0  0  0  0
 36 64  1  0  0  0  0
 37 65  1  0  0  0  0
 37 66  1  0  0  0  0
 37 67  1  0  0  0  0
M  END
> <PUBCHEM_COMPOUND_CID>
10369004

> <PUBCHEM_CONFORMER_RMSD>
1

> <PUBCHEM_CONFORMER_DIVERSEORDER>
1
69
89
64
78
58
53
11
60
90
3
72
104
54
27
67
73
39
80
62
36
29
48
74
61
44
88
17
30
42
105
97
59
32
52
70
55
20
41
87
102
96
28
51
77
100
75
33
34
66
21
16
84
99
22
43
26
47
2
82
101
31
63
24
98
57
15
23
83
68
93
79
85
95
6
38
65
5
56
45
91
19
10
4
46
35
14
92
107
103
9
108
94
49
81
106
86
71
18
40
12
13
50
7
37
8
25
76

> <PUBCHEM_MMFF94_PARTIAL_CHARGES>
45
1 -0.19
10 -0.42
11 0.27
12 0.27
13 0.27
14 0.27
15 0.56
16 0.27
18 -0.14
19 -0.14
2 -0.19
20 0.26
21 -0.15
22 -0.15
23 -0.15
24 -0.15
25 -0.24
26 0.29
27 0.04
28 0.71
29 -0.15
3 -0.57
30 -0.15
31 -0.15
32 -0.15
33 0.19
34 0.19
35 0.69
36 0.3
37 0.3
4 -0.57
5 -0.81
53 0.15
54 0.15
55 0.15
56 0.15
57 0.15
58 0.15
59 0.15
6 -0.81
60 0.15
61 0.15
7 0.05
8 -0.42
9 -0.57

> <PUBCHEM_EFFECTIVE_ROTOR_COUNT>
8.2

> <PUBCHEM_PHARMACOPHORE_FEATURES>
10
1 3 acceptor
1 4 acceptor
1 5 cation
1 6 cation
3 7 9 27 cation
5 7 9 25 26 27 rings
6 18 21 23 29 31 33 rings
6 19 22 24 30 32 34 rings
6 5 6 11 12 13 14 rings
6 8 10 25 26 28 35 rings

> <PUBCHEM_HEAVY_ATOM_COUNT>
37

> <PUBCHEM_ATOM_DEF_STEREO_COUNT>
0

> <PUBCHEM_ATOM_UDEF_STEREO_COUNT>
0

> <PUBCHEM_BOND_DEF_STEREO_COUNT>
0

> <PUBCHEM_BOND_UDEF_STEREO_COUNT>
0

> <PUBCHEM_ISOTOPIC_ATOM_COUNT>
0

> <PUBCHEM_COMPONENT_COUNT>
1

> <PUBCHEM_CACTVS_TAUTO_COUNT>
1

> <PUBCHEM_CONFORMER_ID>
009E37EC00000001

> <PUBCHEM_MMFF94_ENERGY>
89.9823

> <PUBCHEM_FEATURE_SELFOVERLAP>
50.866

> <PUBCHEM_SHAPE_FINGERPRINT>
10119406 146 18409730656361288799
10369192 42 13479135679574902273
10391435 84 18412538834501372048
10677351 14 18338239387614830572
10864689 126 18338806593828445702
11135926 11 18187357702018568003
11331351 85 17822010900057052780
11796584 16 18409728490822370841
11991303 11 14057004974360118224
12202916 173 17988640758154915901
12643181 29 18408602552466154291
13165053 103 18273208721293900711
1361 4 18048039867726586330
13782708 43 18341899653317957290
13811026 1 18412823603127031278
14211702 104 18265338476774726402
14294032 229 16807287990923835709
15183329 4 18113336392592178681
15230672 131 18260827077581782875
15274700 259 17605822639587151909
15347591 1 18264489666356392077
15352257 5 18413671305718785268
15361156 5 17895488010776758116
15406563 47 18339648845695120895
15439362 3 18267021645142181421
1577012 14 17676493882353108716
16114785 44 15337744646657996387
19301676 85 18268436737417996831
21814621 53 18342736368418114872
23559900 14 18341890844377644921
3504750 166 18339363080140487643
354706 109 18200859756226205474
4073 2 18339923813495190808
44389302 135 18189035557849070130
4874694 18 18272360980131420536
50009960 94 18263064670013035066
513202 73 18191313886984969915
5381727 24 18333731313644562769
6673363 416 9439108892931465314
6691757 9 18342462543732998577
6698420 124 18271539602766400633
9831232 110 18410581682608597630
99344 41 18272646840428308022

> <PUBCHEM_SHAPE_MULTIPOLES>
705.27
27.64
4.9
1.45
28.22
6.02
0.14
1.35
-0.52
-8.31
-0.21
1.4
0.46
3.67

> <PUBCHEM_SHAPE_SELFOVERLAP>
1532.85

> <PUBCHEM_SHAPE_VOLUME>
387.3

> <PUBCHEM_COORDINATE_TYPE>
2
5
10

$$$$
