18180076
  -OEChem-03232009343D

 50 53  0     0  0  0  0  0  0999 V2000
    3.5422    1.0001   -0.7609 S   0  0  0  0  0  0  0  0  0  0  0  0
    4.3266    0.7897   -1.9616 O   0  0  0  0  0  0  0  0  0  0  0  0
    4.1854    1.0943    0.5358 O   0  0  0  0  0  0  0  0  0  0  0  0
   -2.1669    1.2828   -0.0113 N   0  0  0  0  0  0  0  0  0  0  0  0
   -4.6206   -0.0714   -0.5634 N   0  0  0  0  0  0  0  0  0  0  0  0
    2.4817    2.3535   -0.9656 N   0  0  0  0  0  0  0  0  0  0  0  0
   -3.4372    1.8443    0.4581 C   0  0  0  0  0  0  0  0  0  0  0  0
   -2.1681   -0.1626   -0.2697 C   0  0  0  0  0  0  0  0  0  0  0  0
   -4.5900    1.3911   -0.4413 C   0  0  0  0  0  0  0  0  0  0  0  0
   -3.3611   -0.5503   -1.1463 C   0  0  0  0  0  0  0  0  0  0  0  0
   -0.9607    1.8819    0.3686 C   0  0  0  0  0  0  0  0  0  0  0  0
   -5.7573   -0.4945   -1.3805 C   0  0  0  0  0  0  0  0  0  0  0  0
    0.1463    1.8192   -0.4777 C   0  0  0  0  0  0  0  0  0  0  0  0
   -0.8657    2.5421    1.5938 C   0  0  0  0  0  0  0  0  0  0  0  0
    1.3486    2.4165   -0.0988 C   0  0  0  0  0  0  0  0  0  0  0  0
    0.3364    3.1393    1.9726 C   0  0  0  0  0  0  0  0  0  0  0  0
    1.4436    3.0766    1.1264 C   0  0  0  0  0  0  0  0  0  0  0  0
    2.4804   -0.4418   -0.6106 C   0  0  0  0  0  0  0  0  0  0  0  0
    1.2018   -1.9745    0.7803 C   0  0  0  0  0  0  0  0  0  0  0  0
    2.0316   -0.8494    0.6459 C   0  0  0  0  0  0  0  0  0  0  0  0
    0.8214   -2.6961   -0.3762 C   0  0  0  0  0  0  0  0  0  0  0  0
    2.1064   -1.1516   -1.7478 C   0  0  0  0  0  0  0  0  0  0  0  0
    1.2824   -2.2714   -1.6330 C   0  0  0  0  0  0  0  0  0  0  0  0
    0.7407   -2.3988    2.0372 C   0  0  0  0  0  0  0  0  0  0  0  0
   -0.0083   -3.8212   -0.2416 C   0  0  0  0  0  0  0  0  0  0  0  0
   -0.0830   -3.5189    2.1523 C   0  0  0  0  0  0  0  0  0  0  0  0
   -0.4567   -4.2289    1.0151 C   0  0  0  0  0  0  0  0  0  0  0  0
   -3.4065    2.9409    0.4432 H   0  0  0  0  0  0  0  0  0  0  0  0
   -3.6289    1.5231    1.4901 H   0  0  0  0  0  0  0  0  0  0  0  0
   -2.2066   -0.7019    0.6854 H   0  0  0  0  0  0  0  0  0  0  0  0
   -1.2567   -0.4790   -0.7866 H   0  0  0  0  0  0  0  0  0  0  0  0
   -5.5287    1.7512   -0.0028 H   0  0  0  0  0  0  0  0  0  0  0  0
   -4.4903    1.8603   -1.4295 H   0  0  0  0  0  0  0  0  0  0  0  0
   -3.2215   -0.1434   -2.1570 H   0  0  0  0  0  0  0  0  0  0  0  0
   -3.3798   -1.6434   -1.2342 H   0  0  0  0  0  0  0  0  0  0  0  0
   -5.8007   -1.5876   -1.4413 H   0  0  0  0  0  0  0  0  0  0  0  0
   -5.7087   -0.0939   -2.3995 H   0  0  0  0  0  0  0  0  0  0  0  0
   -6.6995   -0.1682   -0.9262 H   0  0  0  0  0  0  0  0  0  0  0  0
    0.0711    1.3280   -1.4453 H   0  0  0  0  0  0  0  0  0  0  0  0
   -1.7025    2.5982    2.2841 H   0  0  0  0  0  0  0  0  0  0  0  0
    0.4120    3.6503    2.9279 H   0  0  0  0  0  0  0  0  0  0  0  0
    2.3756    3.5452    1.4315 H   0  0  0  0  0  0  0  0  0  0  0  0
    2.2671    2.5845   -1.9450 H   0  0  0  0  0  0  0  0  0  0  0  0
    2.3166   -0.2926    1.5360 H   0  0  0  0  0  0  0  0  0  0  0  0
    2.4386   -0.8452   -2.7355 H   0  0  0  0  0  0  0  0  0  0  0  0
    1.0005   -2.8096   -2.5356 H   0  0  0  0  0  0  0  0  0  0  0  0
    1.0193   -1.8585    2.9395 H   0  0  0  0  0  0  0  0  0  0  0  0
   -0.3138   -4.3906   -1.1170 H   0  0  0  0  0  0  0  0  0  0  0  0
   -0.4331   -3.8362    3.1302 H   0  0  0  0  0  0  0  0  0  0  0  0
   -1.0985   -5.1004    1.1054 H   0  0  0  0  0  0  0  0  0  0  0  0
  1  2  2  0  0  0  0
  1  3  2  0  0  0  0
  1  6  1  0  0  0  0
  1 18  1  0  0  0  0
  4  7  1  0  0  0  0
  4  8  1  0  0  0  0
  4 11  1  0  0  0  0
  5  9  1  0  0  0  0
  5 10  1  0  0  0  0
  5 12  1  0  0  0  0
  6 15  1  0  0  0  0
  6 43  1  0  0  0  0
  7  9  1  0  0  0  0
  7 28  1  0  0  0  0
  7 29  1  0  0  0  0
  8 10  1  0  0  0  0
  8 30  1  0  0  0  0
  8 31  1  0  0  0  0
  9 32  1  0  0  0  0
  9 33  1  0  0  0  0
 10 34  1  0  0  0  0
 10 35  1  0  0  0  0
 11 13  1  0  0  0  0
 11 14  2  0  0  0  0
 12 36  1  0  0  0  0
 12 37  1  0  0  0  0
 12 38  1  0  0  0  0
 13 15  2  0  0  0  0
 13 39  1  0  0  0  0
 14 16  1  0  0  0  0
 14 40  1  0  0  0  0
 15 17  1  0  0  0  0
 16 17  2  0  0  0  0
 16 41  1  0  0  0  0
 17 42  1  0  0  0  0
 18 20  2  0  0  0  0
 18 22  1  0  0  0  0
 19 20  1  0  0  0  0
 19 21  1  0  0  0  0
 19 24  2  0  0  0  0
 20 44  1  0  0  0  0
 21 23  1  0  0  0  0
 21 25  2  0  0  0  0
 22 23  2  0  0  0  0
 22 45  1  0  0  0  0
 23 46  1  0  0  0  0
 24 26  1  0  0  0  0
 24 47  1  0  0  0  0
 25 27  1  0  0  0  0
 25 48  1  0  0  0  0
 26 27  2  0  0  0  0
 26 49  1  0  0  0  0
 27 50  1  0  0  0  0
M  END
> <PUBCHEM_COMPOUND_CID>
18180076

> <PUBCHEM_CONFORMER_RMSD>
0.8

> <PUBCHEM_CONFORMER_DIVERSEORDER>
1
63
28
13
27
73
41
94
46
12
62
57
87
38
4
30
89
9
82
92
32
17
86
90
26
77
16
72
71
66
52
79
10
78
3
54
70
24
2
6
65
64
29
50
43
91
23
11
48
74
81
34
25
93
85
75
49
15
69
7
61
8
88
45
83
84
22
58
21
5
55
40
76
36
60
44
51
59
14
20
80
33
67
42
56
19
53
31
39
18
47
35
37
68

> <PUBCHEM_MMFF94_PARTIAL_CHARGES>
37
1 1.45
10 0.27
11 0.1
12 0.27
13 -0.15
14 -0.15
15 0.2
16 -0.15
17 -0.15
18 -0.01
2 -0.65
20 -0.15
22 -0.15
23 -0.15
24 -0.15
25 -0.15
26 -0.15
27 -0.15
3 -0.65
39 0.15
4 -0.84
40 0.15
41 0.15
42 0.15
43 0.42
44 0.15
45 0.15
46 0.15
47 0.15
48 0.15
49 0.15
5 -0.81
50 0.15
6 -0.76
7 0.37
8 0.37
9 0.27

> <PUBCHEM_EFFECTIVE_ROTOR_COUNT>
5.2

> <PUBCHEM_PHARMACOPHORE_FEATURES>
9
1 2 acceptor
1 3 acceptor
1 4 cation
1 5 cation
1 6 donor
6 11 13 14 15 16 17 rings
6 18 19 20 21 22 23 rings
6 19 21 24 25 26 27 rings
6 4 5 7 8 9 10 rings

> <PUBCHEM_HEAVY_ATOM_COUNT>
27

> <PUBCHEM_ATOM_DEF_STEREO_COUNT>
0

> <PUBCHEM_ATOM_UDEF_STEREO_COUNT>
0

> <PUBCHEM_BOND_DEF_STEREO_COUNT>
0

> <PUBCHEM_BOND_UDEF_STEREO_COUNT>
0

> <PUBCHEM_ISOTOPIC_ATOM_COUNT>
0

> <PUBCHEM_COMPONENT_COUNT>
1

> <PUBCHEM_CACTVS_TAUTO_COUNT>
1

> <PUBCHEM_CONFORMER_ID>
011567EC00000001

> <PUBCHEM_MMFF94_ENERGY>
81.9716

> <PUBCHEM_FEATURE_SELFOVERLAP>
45.718

> <PUBCHEM_SHAPE_FINGERPRINT>
10119406 146 18051158934050905446
10675989 125 18340767048867990801
108634 29 18267876158148762118
1100329 8 18338220682937220114
11014199 57 17691120436171626035
11244481 83 13181871827078218319
12156800 1 14828191611053998059
12553582 1 18053942853835150993
13149001 5 18195815291203206084
13402501 40 17976554015630038723
14068700 675 17830152628767344426
14117953 113 16105858714603091925
14787075 74 18341898510366299380
14931854 50 18412549803373151461
17138139 8 18199456839576085031
17492 54 18334020527107647884
17909252 39 17559405669219549350
19026451 147 18268418058552173343
20567600 347 18333728013711460971
20775438 99 17555709347081519431
21421861 104 18121787123320732841
21452121 99 17971764521314315916
23559900 14 17555449531808848775
238 59 18409449223817156689
35225 105 17172061148420956571
404807 78 17460039702868269403
437795 51 18337408122997250091
4409770 3 18121530052680403326
463206 1 18128811023048051189
484989 97 18191876840616251159
563151 248 16911201735863876328
6376802 137 17561095683327128192
70251023 43 17910122308948135871

> <PUBCHEM_SHAPE_MULTIPOLES>
532.82
7.26
5.29
1.9
9.35
3.13
0.41
-2.53
-4.43
-1.64
2.83
-0.7
0.56
-0.69

> <PUBCHEM_SHAPE_SELFOVERLAP>
1142.306

> <PUBCHEM_SHAPE_VOLUME>
295.5

> <PUBCHEM_COORDINATE_TYPE>
2
5
10

$$$$
