9904205
  -OEChem-03232009343D

 44 47  0     1  0  0  0  0  0999 V2000
    1.0184   -1.5825   -0.2812 O   0  0  0  0  0  0  0  0  0  0  0  0
   -0.0890   -0.8946    0.2500 N   0  0  3  0  0  0  0  0  0  0  0  0
    4.5238   -0.5481    0.1300 N   0  0  0  0  0  0  0  0  0  0  0  0
    0.3152    0.2728    1.0327 C   0  0  1  0  0  0  0  0  0  0  0  0
    1.8277    0.0972    1.1112 C   0  0  0  0  0  0  0  0  0  0  0  0
    2.1181   -0.6699   -0.1614 C   0  0  1  0  0  0  0  0  0  0  0  0
   -0.2277    1.5382    0.3992 C   0  0  0  0  0  0  0  0  0  0  0  0
    3.4200   -1.4466   -0.1034 C   0  0  0  0  0  0  0  0  0  0  0  0
   -1.3958   -1.3452    0.0443 C   0  0  0  0  0  0  0  0  0  0  0  0
   -1.6245    1.7443    0.4405 C   0  0  0  0  0  0  0  0  0  0  0  0
   -2.5191    0.7277    1.1117 C   0  0  0  0  0  0  0  0  0  0  0  0
   -2.5550   -0.6225    0.4219 C   0  0  0  0  0  0  0  0  0  0  0  0
    0.5735    2.4941   -0.2415 C   0  0  0  0  0  0  0  0  0  0  0  0
   -1.5887   -2.5895   -0.5991 C   0  0  0  0  0  0  0  0  0  0  0  0
   -2.1830    2.8891   -0.1478 C   0  0  0  0  0  0  0  0  0  0  0  0
   -3.8319   -1.1735    0.1766 C   0  0  0  0  0  0  0  0  0  0  0  0
    0.0067    3.6311   -0.8215 C   0  0  0  0  0  0  0  0  0  0  0  0
   -1.3691    3.8290   -0.7746 C   0  0  0  0  0  0  0  0  0  0  0  0
   -2.8590   -3.1139   -0.8435 C   0  0  0  0  0  0  0  0  0  0  0  0
    4.6312    0.4513   -0.9421 C   0  0  0  0  0  0  0  0  0  0  0  0
    5.7910   -1.2828    0.2496 C   0  0  0  0  0  0  0  0  0  0  0  0
   -3.9830   -2.4059   -0.4515 C   0  0  0  0  0  0  0  0  0  0  0  0
   -0.0579    0.2064    2.0626 H   0  0  0  0  0  0  0  0  0  0  0  0
    2.4004    1.0194    1.2336 H   0  0  0  0  0  0  0  0  0  0  0  0
    2.0530   -0.5386    1.9791 H   0  0  0  0  0  0  0  0  0  0  0  0
    2.0701   -0.0264   -1.0472 H   0  0  0  0  0  0  0  0  0  0  0  0
    3.5429   -2.0239   -1.0300 H   0  0  0  0  0  0  0  0  0  0  0  0
    3.3537   -2.1934    0.6994 H   0  0  0  0  0  0  0  0  0  0  0  0
   -2.2216    0.5929    2.1591 H   0  0  0  0  0  0  0  0  0  0  0  0
   -3.5348    1.1420    1.1661 H   0  0  0  0  0  0  0  0  0  0  0  0
    1.6499    2.3761   -0.3120 H   0  0  0  0  0  0  0  0  0  0  0  0
   -0.7341   -3.1836   -0.9187 H   0  0  0  0  0  0  0  0  0  0  0  0
   -3.2571    3.0545   -0.1228 H   0  0  0  0  0  0  0  0  0  0  0  0
   -4.7285   -0.6338    0.4747 H   0  0  0  0  0  0  0  0  0  0  0  0
    0.6430    4.3610   -1.3139 H   0  0  0  0  0  0  0  0  0  0  0  0
   -1.8079    4.7128   -1.2281 H   0  0  0  0  0  0  0  0  0  0  0  0
   -2.9638   -4.0758   -1.3366 H   0  0  0  0  0  0  0  0  0  0  0  0
    4.6645   -0.0090   -1.9364 H   0  0  0  0  0  0  0  0  0  0  0  0
    5.5461    1.0435   -0.8180 H   0  0  0  0  0  0  0  0  0  0  0  0
    3.8176    1.1813   -0.9110 H   0  0  0  0  0  0  0  0  0  0  0  0
    5.7366   -2.0080    1.0691 H   0  0  0  0  0  0  0  0  0  0  0  0
    6.6120   -0.5986    0.4907 H   0  0  0  0  0  0  0  0  0  0  0  0
    6.0436   -1.8196   -0.6720 H   0  0  0  0  0  0  0  0  0  0  0  0
   -4.9749   -2.8078   -0.6337 H   0  0  0  0  0  0  0  0  0  0  0  0
  1  2  1  0  0  0  0
  1  6  1  0  0  0  0
  2  4  1  0  0  0  0
  2  9  1  0  0  0  0
  3  8  1  0  0  0  0
  3 20  1  0  0  0  0
  3 21  1  0  0  0  0
  4  5  1  0  0  0  0
  4  7  1  0  0  0  0
  4 23  1  0  0  0  0
  5  6  1  0  0  0  0
  5 24  1  0  0  0  0
  5 25  1  0  0  0  0
  6  8  1  0  0  0  0
  6 26  1  0  0  0  0
  7 10  1  0  0  0  0
  7 13  2  0  0  0  0
  8 27  1  0  0  0  0
  8 28  1  0  0  0  0
  9 12  1  0  0  0  0
  9 14  2  0  0  0  0
 10 11  1  0  0  0  0
 10 15  2  0  0  0  0
 11 12  1  0  0  0  0
 11 29  1  0  0  0  0
 11 30  1  0  0  0  0
 12 16  2  0  0  0  0
 13 17  1  0  0  0  0
 13 31  1  0  0  0  0
 14 19  1  0  0  0  0
 14 32  1  0  0  0  0
 15 18  1  0  0  0  0
 15 33  1  0  0  0  0
 16 22  1  0  0  0  0
 16 34  1  0  0  0  0
 17 18  2  0  0  0  0
 17 35  1  0  0  0  0
 18 36  1  0  0  0  0
 19 22  2  0  0  0  0
 19 37  1  0  0  0  0
 20 38  1  0  0  0  0
 20 39  1  0  0  0  0
 20 40  1  0  0  0  0
 21 41  1  0  0  0  0
 21 42  1  0  0  0  0
 21 43  1  0  0  0  0
 22 44  1  0  0  0  0
M  END
> <PUBCHEM_COMPOUND_CID>
9904205

> <PUBCHEM_CONFORMER_RMSD>
0.6

> <PUBCHEM_CONFORMER_DIVERSEORDER>
1
7
15
5
4
9
10
2
11
3
17
14
16
12
13
8
6

> <PUBCHEM_MMFF94_PARTIAL_CHARGES>
29
1 -0.26
10 -0.14
11 0.29
12 -0.14
13 -0.15
14 -0.15
15 -0.15
16 -0.15
17 -0.15
18 -0.15
19 -0.15
2 -0.49
20 0.27
21 0.27
22 -0.15
3 -0.81
31 0.15
32 0.15
33 0.15
34 0.15
35 0.15
36 0.15
37 0.15
4 0.51
44 0.15
6 0.28
7 -0.14
8 0.27
9 0.1

> <PUBCHEM_EFFECTIVE_ROTOR_COUNT>
2.8

> <PUBCHEM_PHARMACOPHORE_FEATURES>
5
1 3 cation
5 1 2 4 5 6 rings
6 7 10 13 15 17 18 rings
6 9 12 14 16 19 22 rings
7 2 4 7 9 10 11 12 rings

> <PUBCHEM_HEAVY_ATOM_COUNT>
22

> <PUBCHEM_ATOM_DEF_STEREO_COUNT>
0

> <PUBCHEM_ATOM_UDEF_STEREO_COUNT>
2

> <PUBCHEM_BOND_DEF_STEREO_COUNT>
0

> <PUBCHEM_BOND_UDEF_STEREO_COUNT>
0

> <PUBCHEM_ISOTOPIC_ATOM_COUNT>
0

> <PUBCHEM_COMPONENT_COUNT>
1

> <PUBCHEM_CACTVS_TAUTO_COUNT>
1

> <PUBCHEM_CONFORMER_ID>
0097204D00000001

> <PUBCHEM_MMFF94_ENERGY>
76.4128

> <PUBCHEM_FEATURE_SELFOVERLAP>
25.436

> <PUBCHEM_SHAPE_FINGERPRINT>
10319926 262 18197191691732518738
10411042 1 18338234985136474819
10493431 412 17984433944856957273
10871710 139 18335151881453988780
11045515 52 18188204407211928365
11101153 10 18262805185474614724
11595378 159 18262497253124392602
11833330 49 18408317795965715448
12173636 292 17977945679201469916
12403259 226 18341889693499807256
12403814 3 18337121059339620720
12553582 1 18336255834115301075
12788726 201 18261385611955383386
13004483 165 18410845586109481902
13009979 54 17914914246994066795
13140716 1 18270126845729461131
13583140 156 17915435248376499690
138480 1 15672665400792084021
14508225 48 18340193185238048965
14790565 3 18051702044617046801
14910302 57 18058465213927520726
15042514 8 18338520737678728571
15961568 22 18265892652637904636
16087824 20 18337670794850245077
17357779 13 18200010928864248925
17492 89 17907573989051183167
17539 30 18339910546246060237
1813 80 18264757938592332098
20101258 96 18263098736854428338
20693207 138 17558010363257401470
21029758 27 18337400434399089771
21285901 2 18202010888817836895
21339142 126 18410013200067489850
22182313 1 18195220403715099449
22907989 373 18335974268775264445
23227448 37 18338518517644996780
23402539 116 18412541015865074070
23419403 2 17488722576047705568
23557571 272 18200884993733053054
23559900 14 18059565961919997058
23566358 27 17688878957248677607
238 59 16603200877814026373
25147074 1 17770517622976260499
255183 451 17983019152211904287
2748010 2 17763477118994007233
335352 9 18341612638128957063
352729 6 17763458418094522795
394222 165 16602070060227619689
4280585 95 18338221786675230194
4409770 3 18264759961627442949
46194498 28 17472097011507370591
531348 171 18120946010364481470
532947 4 17690851476787540884
559249 180 18047470029168095618
6992083 37 18270135577344914523
7164475 11 18408886214124823638
7364860 26 17835237123068923881
81228 2 18411133641250195787
9925002 15 18336844051129144797
9981440 41 17616807730646773856

> <PUBCHEM_SHAPE_MULTIPOLES>
436.92
7.98
4.43
0.97
11.48
3.47
0.06
-6.46
-0.59
-3.8
-1.7
-0.05
0.15
-0.69

> <PUBCHEM_SHAPE_SELFOVERLAP>
950.284

> <PUBCHEM_SHAPE_VOLUME>
238.1

> <PUBCHEM_COORDINATE_TYPE>
2
5
10

$$$$
