44374753
  -OEChem-03232009313D

 41 44  0     1  0  0  0  0  0999 V2000
    0.5578   -1.5247   -0.2013 O   0  0  0  0  0  0  0  0  0  0  0  0
   -4.5723    0.7017    0.5495 N   0  0  0  0  0  0  0  0  0  0  0  0
   -0.5527    0.5112   -0.2187 N   0  0  0  0  0  0  0  0  0  0  0  0
    4.0529    0.8682    0.0800 N   0  0  0  0  0  0  0  0  0  0  0  0
    3.4301    2.0780    0.0838 N   0  0  0  0  0  0  0  0  0  0  0  0
   -4.3095    0.5725   -0.8957 C   0  0  2  0  0  0  0  0  0  0  0  0
   -3.9812   -0.5331    1.0973 C   0  0  1  0  0  0  0  0  0  0  0  0
   -4.6161   -0.8951   -1.2132 C   0  0  0  0  0  0  0  0  0  0  0  0
   -4.3983   -1.6298    0.1114 C   0  0  0  0  0  0  0  0  0  0  0  0
   -2.8170    0.9045   -1.0984 C   0  0  0  0  0  0  0  0  0  0  0  0
   -2.4538   -0.3187    1.1054 C   0  0  0  0  0  0  0  0  0  0  0  0
   -1.8892   -0.0257   -0.2964 C   0  0  0  0  0  0  0  0  0  0  0  0
   -5.9944    0.8325    0.8565 C   0  0  0  0  0  0  0  0  0  0  0  0
    0.5742   -0.2969   -0.1771 C   0  0  0  0  0  0  0  0  0  0  0  0
    1.8768    0.4095   -0.0710 C   0  0  0  0  0  0  0  0  0  0  0  0
    3.1202   -0.1704   -0.0145 C   0  0  0  0  0  0  0  0  0  0  0  0
    2.1315    1.7877   -0.0064 C   0  0  0  0  0  0  0  0  0  0  0  0
    3.6041   -1.5086   -0.0316 C   0  0  0  0  0  0  0  0  0  0  0  0
    5.4279    0.6189    0.1570 C   0  0  0  0  0  0  0  0  0  0  0  0
    4.9286   -1.7369    0.0428 C   0  0  0  0  0  0  0  0  0  0  0  0
    5.8804   -0.6447    0.1408 C   0  0  0  0  0  0  0  0  0  0  0  0
   -4.9119    1.2592   -1.5009 H   0  0  0  0  0  0  0  0  0  0  0  0
   -4.3153   -0.7483    2.1184 H   0  0  0  0  0  0  0  0  0  0  0  0
   -3.9847   -1.2974   -2.0121 H   0  0  0  0  0  0  0  0  0  0  0  0
   -5.6599   -1.0126   -1.5281 H   0  0  0  0  0  0  0  0  0  0  0  0
   -5.3382   -2.0973    0.4282 H   0  0  0  0  0  0  0  0  0  0  0  0
   -3.6507   -2.4244    0.0196 H   0  0  0  0  0  0  0  0  0  0  0  0
   -2.5607    0.8427   -2.1637 H   0  0  0  0  0  0  0  0  0  0  0  0
   -2.6439    1.9491   -0.8040 H   0  0  0  0  0  0  0  0  0  0  0  0
   -2.2140    0.5133    1.7822 H   0  0  0  0  0  0  0  0  0  0  0  0
   -1.9558   -1.2030    1.5230 H   0  0  0  0  0  0  0  0  0  0  0  0
   -1.8224   -0.9787   -0.8369 H   0  0  0  0  0  0  0  0  0  0  0  0
   -6.1382    0.9124    1.9396 H   0  0  0  0  0  0  0  0  0  0  0  0
   -6.6057   -0.0007    0.4949 H   0  0  0  0  0  0  0  0  0  0  0  0
   -6.3888    1.7562    0.4190 H   0  0  0  0  0  0  0  0  0  0  0  0
   -0.4561    1.5179   -0.1357 H   0  0  0  0  0  0  0  0  0  0  0  0
    1.4318    2.6111   -0.0208 H   0  0  0  0  0  0  0  0  0  0  0  0
    2.9184   -2.3446   -0.1043 H   0  0  0  0  0  0  0  0  0  0  0  0
    6.0857    1.4766    0.2282 H   0  0  0  0  0  0  0  0  0  0  0  0
    5.3197   -2.7485    0.0313 H   0  0  0  0  0  0  0  0  0  0  0  0
    6.9376   -0.8736    0.1986 H   0  0  0  0  0  0  0  0  0  0  0  0
  1 14  2  0  0  0  0
  2  6  1  0  0  0  0
  2  7  1  0  0  0  0
  2 13  1  0  0  0  0
  3 12  1  0  0  0  0
  3 14  1  0  0  0  0
  3 36  1  0  0  0  0
  4  5  1  0  0  0  0
  4 16  1  0  0  0  0
  4 19  1  0  0  0  0
  5 17  2  0  0  0  0
  6  8  1  0  0  0  0
  6 10  1  0  0  0  0
  6 22  1  0  0  0  0
  7  9  1  0  0  0  0
  7 11  1  0  0  0  0
  7 23  1  0  0  0  0
  8  9  1  0  0  0  0
  8 24  1  0  0  0  0
  8 25  1  0  0  0  0
  9 26  1  0  0  0  0
  9 27  1  0  0  0  0
 10 12  1  0  0  0  0
 10 28  1  0  0  0  0
 10 29  1  0  0  0  0
 11 12  1  0  0  0  0
 11 30  1  0  0  0  0
 11 31  1  0  0  0  0
 12 32  1  0  0  0  0
 13 33  1  0  0  0  0
 13 34  1  0  0  0  0
 13 35  1  0  0  0  0
 14 15  1  0  0  0  0
 15 16  2  0  0  0  0
 15 17  1  0  0  0  0
 16 18  1  0  0  0  0
 17 37  1  0  0  0  0
 18 20  2  0  0  0  0
 18 38  1  0  0  0  0
 19 21  2  0  0  0  0
 19 39  1  0  0  0  0
 20 21  1  0  0  0  0
 20 40  1  0  0  0  0
 21 41  1  0  0  0  0
M  END
> <PUBCHEM_COMPOUND_CID>
44374753

> <PUBCHEM_CONFORMER_RMSD>
0.6

> <PUBCHEM_CONFORMER_DIVERSEORDER>
1
19
21
25
5
23
8
20
12
24
17
11
16
22
18
10
6
4
13
7
2
15
14
9
3

> <PUBCHEM_MMFF94_PARTIAL_CHARGES>
23
1 -0.57
12 0.3
13 0.27
14 0.72
15 -0.09
16 -0.2
17 0.14
18 -0.11
19 -0.18
2 -0.81
20 -0.15
21 -0.15
3 -0.73
36 0.37
37 0.15
38 0.15
39 0.15
4 0.6
40 0.15
41 0.15
5 -0.71
6 0.27
7 0.27

> <PUBCHEM_EFFECTIVE_ROTOR_COUNT>
4.2

> <PUBCHEM_PHARMACOPHORE_FEATURES>
7
1 1 acceptor
1 2 cation
1 3 donor
1 5 acceptor
5 4 5 15 16 17 rings
6 4 16 18 19 20 21 rings
8 2 6 7 8 9 10 11 12 rings

> <PUBCHEM_HEAVY_ATOM_COUNT>
21

> <PUBCHEM_ATOM_DEF_STEREO_COUNT>
0

> <PUBCHEM_ATOM_UDEF_STEREO_COUNT>
2

> <PUBCHEM_BOND_DEF_STEREO_COUNT>
0

> <PUBCHEM_BOND_UDEF_STEREO_COUNT>
0

> <PUBCHEM_ISOTOPIC_ATOM_COUNT>
0

> <PUBCHEM_COMPONENT_COUNT>
1

> <PUBCHEM_CACTVS_TAUTO_COUNT>
2

> <PUBCHEM_CONFORMER_ID>
02A51AE100000001

> <PUBCHEM_MMFF94_ENERGY>
43.2359

> <PUBCHEM_FEATURE_SELFOVERLAP>
35.63

> <PUBCHEM_SHAPE_FINGERPRINT>
10 15 18188480394191599800
10680689 15 17603302653056121837
10912923 1 17775286096787365793
11315181 36 18060415842070478589
11370993 144 18335988584354558827
11405975 8 18410295817631874585
11545043 162 17385448747311612505
12107183 9 17622735219090185763
12166972 35 18130786801908371096
12236239 1 17632574955011207100
12403259 415 17967527965352125693
12507557 5 18272652359207900337
12596602 18 17346594205609867042
12616971 3 18202566198287694909
13167372 99 18129949974981211505
13167823 11 18342172293183254663
13533116 47 17703791380443165850
13911852 28 18124031227017688734
1420 363 17385727984546993025
14341114 176 18335144167555724373
14386348 63 17894352172304542698
14573314 32 17603583006703678238
15196674 1 18410575110459288959
15788980 27 18334857220864271847
15961568 22 16516250768461636764
17349148 13 17704076204808337822
17844677 252 18335706035124880196
17857418 61 18413383250377540454
18222031 100 16371003044099901975
18927931 339 17603588530437822175
19489759 90 17022897952216889631
200 152 18273212002152372683
20645477 70 18411135810504312894
21033648 29 18114727296291917821
21033650 10 15768400282334244248
21065201 7 17240195543136591841
21150785 3 12324252675587071843
21267235 1 18339646638645861190
21279426 13 17971187032822738286
21682296 61 18198910219236711014
21709351 56 18411131446400575205
220451 1 18411986862130983206
22646028 1 18059853973778928863
2297311 6 16877949312978969845
23402539 116 17704351069745925477
23536379 177 18272089383521397139
23559900 14 18113613512461092369
239999 70 18186522095072831290
26918003 58 18413673504393686473
2838139 119 18201154331581448465
300161 21 17275101717319101463
3004659 81 17895475835435841962
345986 75 18057878044706108962
34797466 226 15719689692388854094
351380 180 18408322198307115896
4073 2 18114187479190387730
4214541 1 18409448085577015373
465052 167 18342741798011104934
5104073 3 18411981394600627843
542803 24 17489869340810537452
59755656 215 17749667402867164859
67856867 119 17988637557765918008
7495541 125 17560795593170664274

> <PUBCHEM_SHAPE_MULTIPOLES>
406.38
15.06
1.68
0.96
1.56
0.01
-0.02
-1.2
1.27
1.17
-0.03
-1.36
-0.01
-0.01

> <PUBCHEM_SHAPE_SELFOVERLAP>
885.451

> <PUBCHEM_SHAPE_VOLUME>
223.4

> <PUBCHEM_COORDINATE_TYPE>
2
5
10

$$$$
