44452007
  -OEChem-03232009353D

 78 82  0     0  0  0  0  0  0999 V2000
   -0.0037   -6.2859    1.5102 F   0  0  0  0  0  0  0  0  0  0  0  0
    4.7609   -0.3469    0.7594 O   0  0  0  0  0  0  0  0  0  0  0  0
   -2.4319   -1.7527   -3.5398 O   0  0  0  0  0  0  0  0  0  0  0  0
   -0.9454   -0.1830    2.6922 O   0  0  0  0  0  0  0  0  0  0  0  0
   -4.2744    4.7829    1.2730 O   0  0  0  0  0  0  0  0  0  0  0  0
    1.0915    0.0585   -2.6214 N   0  0  0  0  0  0  0  0  0  0  0  0
    3.0253    1.1742   -0.8397 N   0  0  0  0  0  0  0  0  0  0  0  0
   -3.0247   -0.0755   -2.0429 N   0  0  0  0  0  0  0  0  0  0  0  0
   -2.4033   -0.4663    0.8637 N   0  0  0  0  0  0  0  0  0  0  0  0
   -2.5689   -2.6119   -0.1513 N   0  0  0  0  0  0  0  0  0  0  0  0
    1.5798   -0.7181   -1.4750 C   0  0  0  0  0  0  0  0  0  0  0  0
    2.1634    0.9207   -3.1333 C   0  0  0  0  0  0  0  0  0  0  0  0
    2.0413    0.2037   -0.3440 C   0  0  0  0  0  0  0  0  0  0  0  0
    2.6456    1.8970   -2.0574 C   0  0  0  0  0  0  0  0  0  0  0  0
    0.6028   -0.8322   -3.6734 C   0  0  0  0  0  0  0  0  0  0  0  0
   -0.3323   -0.0724   -4.6162 C   0  0  0  0  0  0  0  0  0  0  0  0
    3.8766    1.7809    0.0907 C   0  0  0  0  0  0  0  0  0  0  0  0
   -1.5604    0.4795   -3.8927 C   0  0  0  0  0  0  0  0  0  0  0  0
    4.7328    1.0107    0.8775 C   0  0  0  0  0  0  0  0  0  0  0  0
    3.8635    3.1690    0.2272 C   0  0  0  0  0  0  0  0  0  0  0  0
   -2.3762   -0.5819   -3.1732 C   0  0  0  0  0  0  0  0  0  0  0  0
    5.5761    1.6285    1.8009 C   0  0  0  0  0  0  0  0  0  0  0  0
    4.7067    3.7868    1.1508 C   0  0  0  0  0  0  0  0  0  0  0  0
    5.5631    3.0167    1.9377 C   0  0  0  0  0  0  0  0  0  0  0  0
   -3.8333   -0.8685   -1.1779 C   0  0  0  0  0  0  0  0  0  0  0  0
   -2.8979   -1.3580   -0.0910 C   0  0  0  0  0  0  0  0  0  0  0  0
    6.0030   -0.9383    0.3842 C   0  0  0  0  0  0  0  0  0  0  0  0
   -1.4323   -0.8761    1.8020 C   0  0  0  0  0  0  0  0  0  0  0  0
   -1.0305   -2.2962    1.7215 C   0  0  0  0  0  0  0  0  0  0  0  0
   -2.8845    0.8837    0.9696 C   0  0  0  0  0  0  0  0  0  0  0  0
   -1.6354   -3.1095    0.7633 C   0  0  0  0  0  0  0  0  0  0  0  0
    5.7300   -2.2180   -0.3771 C   0  0  0  0  0  0  0  0  0  0  0  0
   -0.0816   -2.8203    2.6076 C   0  0  0  0  0  0  0  0  0  0  0  0
   -1.2786   -4.4616    0.6994 C   0  0  0  0  0  0  0  0  0  0  0  0
   -1.9961    1.9523    0.8498 C   0  0  0  0  0  0  0  0  0  0  0  0
   -4.2402    1.1253    1.1918 C   0  0  0  0  0  0  0  0  0  0  0  0
    0.2651   -4.1686    2.5328 C   0  0  0  0  0  0  0  0  0  0  0  0
   -0.3335   -4.9895    1.5801 C   0  0  0  0  0  0  0  0  0  0  0  0
   -2.4633    3.2626    0.9521 C   0  0  0  0  0  0  0  0  0  0  0  0
   -4.7075    2.4355    1.2942 C   0  0  0  0  0  0  0  0  0  0  0  0
   -3.8191    3.5041    1.1743 C   0  0  0  0  0  0  0  0  0  0  0  0
   -5.6721    4.9586    1.5006 C   0  0  0  0  0  0  0  0  0  0  0  0
    2.4058   -1.3769   -1.7750 H   0  0  0  0  0  0  0  0  0  0  0  0
    0.7770   -1.3552   -1.0840 H   0  0  0  0  0  0  0  0  0  0  0  0
    1.8217    1.5194   -3.9838 H   0  0  0  0  0  0  0  0  0  0  0  0
    3.0132    0.3176   -3.4814 H   0  0  0  0  0  0  0  0  0  0  0  0
    1.1807    0.7511    0.0609 H   0  0  0  0  0  0  0  0  0  0  0  0
    2.4196   -0.4194    0.4716 H   0  0  0  0  0  0  0  0  0  0  0  0
    3.5012    2.4520   -2.4623 H   0  0  0  0  0  0  0  0  0  0  0  0
    1.8475    2.6163   -1.8323 H   0  0  0  0  0  0  0  0  0  0  0  0
    1.4319   -1.2697   -4.2449 H   0  0  0  0  0  0  0  0  0  0  0  0
    0.0640   -1.6817   -3.2389 H   0  0  0  0  0  0  0  0  0  0  0  0
   -0.6635   -0.7694   -5.3968 H   0  0  0  0  0  0  0  0  0  0  0  0
    0.1834    0.7399   -5.1386 H   0  0  0  0  0  0  0  0  0  0  0  0
   -1.2592    1.2630   -3.1878 H   0  0  0  0  0  0  0  0  0  0  0  0
   -2.2262    0.9522   -4.6247 H   0  0  0  0  0  0  0  0  0  0  0  0
    3.1999    3.8009   -0.3561 H   0  0  0  0  0  0  0  0  0  0  0  0
    6.2423    1.0418    2.4274 H   0  0  0  0  0  0  0  0  0  0  0  0
    4.6939    4.8673    1.2605 H   0  0  0  0  0  0  0  0  0  0  0  0
    6.2175    3.4977    2.6587 H   0  0  0  0  0  0  0  0  0  0  0  0
   -2.9291    0.9124   -1.8271 H   0  0  0  0  0  0  0  0  0  0  0  0
   -4.2433   -1.7218   -1.7289 H   0  0  0  0  0  0  0  0  0  0  0  0
   -4.6675   -0.2719   -0.8195 H   0  0  0  0  0  0  0  0  0  0  0  0
    6.5795   -1.1599    1.2889 H   0  0  0  0  0  0  0  0  0  0  0  0
    6.5863   -0.2594   -0.2503 H   0  0  0  0  0  0  0  0  0  0  0  0
    5.1440   -2.9126    0.2337 H   0  0  0  0  0  0  0  0  0  0  0  0
    5.1409   -2.0117   -1.2769 H   0  0  0  0  0  0  0  0  0  0  0  0
    6.6636   -2.7061   -0.6702 H   0  0  0  0  0  0  0  0  0  0  0  0
    0.3944   -2.1980    3.3603 H   0  0  0  0  0  0  0  0  0  0  0  0
   -1.7345   -5.1134   -0.0421 H   0  0  0  0  0  0  0  0  0  0  0  0
   -0.9392    1.7830    0.6651 H   0  0  0  0  0  0  0  0  0  0  0  0
   -4.9416    0.3053    1.3244 H   0  0  0  0  0  0  0  0  0  0  0  0
    1.0002   -4.5793    3.2185 H   0  0  0  0  0  0  0  0  0  0  0  0
   -1.7669    4.0910    0.8550 H   0  0  0  0  0  0  0  0  0  0  0  0
   -5.7706    2.5514    1.4750 H   0  0  0  0  0  0  0  0  0  0  0  0
   -5.8585    6.0364    1.5507 H   0  0  0  0  0  0  0  0  0  0  0  0
   -5.9791    4.5360    2.4634 H   0  0  0  0  0  0  0  0  0  0  0  0
   -6.2675    4.5695    0.6677 H   0  0  0  0  0  0  0  0  0  0  0  0
  1 38  1  0  0  0  0
  2 19  1  0  0  0  0
  2 27  1  0  0  0  0
  3 21  2  0  0  0  0
  4 28  2  0  0  0  0
  5 41  1  0  0  0  0
  5 42  1  0  0  0  0
  6 11  1  0  0  0  0
  6 12  1  0  0  0  0
  6 15  1  0  0  0  0
  7 13  1  0  0  0  0
  7 14  1  0  0  0  0
  7 17  1  0  0  0  0
  8 21  1  0  0  0  0
  8 25  1  0  0  0  0
  8 61  1  0  0  0  0
  9 26  1  0  0  0  0
  9 28  1  0  0  0  0
  9 30  1  0  0  0  0
 10 26  2  0  0  0  0
 10 31  1  0  0  0  0
 11 13  1  0  0  0  0
 11 43  1  0  0  0  0
 11 44  1  0  0  0  0
 12 14  1  0  0  0  0
 12 45  1  0  0  0  0
 12 46  1  0  0  0  0
 13 47  1  0  0  0  0
 13 48  1  0  0  0  0
 14 49  1  0  0  0  0
 14 50  1  0  0  0  0
 15 16  1  0  0  0  0
 15 51  1  0  0  0  0
 15 52  1  0  0  0  0
 16 18  1  0  0  0  0
 16 53  1  0  0  0  0
 16 54  1  0  0  0  0
 17 19  1  0  0  0  0
 17 20  2  0  0  0  0
 18 21  1  0  0  0  0
 18 55  1  0  0  0  0
 18 56  1  0  0  0  0
 19 22  2  0  0  0  0
 20 23  1  0  0  0  0
 20 57  1  0  0  0  0
 22 24  1  0  0  0  0
 22 58  1  0  0  0  0
 23 24  2  0  0  0  0
 23 59  1  0  0  0  0
 24 60  1  0  0  0  0
 25 26  1  0  0  0  0
 25 62  1  0  0  0  0
 25 63  1  0  0  0  0
 27 32  1  0  0  0  0
 27 64  1  0  0  0  0
 27 65  1  0  0  0  0
 28 29  1  0  0  0  0
 29 31  2  0  0  0  0
 29 33  1  0  0  0  0
 30 35  2  0  0  0  0
 30 36  1  0  0  0  0
 31 34  1  0  0  0  0
 32 66  1  0  0  0  0
 32 67  1  0  0  0  0
 32 68  1  0  0  0  0
 33 37  2  0  0  0  0
 33 69  1  0  0  0  0
 34 38  2  0  0  0  0
 34 70  1  0  0  0  0
 35 39  1  0  0  0  0
 35 71  1  0  0  0  0
 36 40  2  0  0  0  0
 36 72  1  0  0  0  0
 37 38  1  0  0  0  0
 37 73  1  0  0  0  0
 39 41  2  0  0  0  0
 39 74  1  0  0  0  0
 40 41  1  0  0  0  0
 40 75  1  0  0  0  0
 42 76  1  0  0  0  0
 42 77  1  0  0  0  0
 42 78  1  0  0  0  0
M  END
> <PUBCHEM_COMPOUND_CID>
44452007

> <PUBCHEM_CONFORMER_RMSD>
1.4

> <PUBCHEM_CONFORMER_DIVERSEORDER>
1
183
34
94
20
145
169
16
85
7
167
160
59
104
228
198
174
26
117
51
124
209
223
232
179
106
199
53
119
129
245
29
238
236
76
135
212
205
248
128
42
240
58
37
168
156
8
210
241
222
191
182
27
126
227
134
225
43
139
93
32
181
161
95
164
178
30
10
206
247
171
54
90
21
96
45
244
47
33
172
242
155
23
79
100
157
202
3
57
195
148
25
197
203
166
74
92
237
131
231
141
200
110
249
101
180
105
121
52
86
173
6
63
61
190
151
28
78
130
2
102
46
48
88
177
19
24
80
152
133
243
146
193
31
154
213
83
208
49
11
98
40
158
194
9
89
114
234
216
189
184
13
4
214
71
66
44
35
230
165
188
91
118
12
162
221
132
38
140
15
50
142
136
138
109
204
186
229
17
69
22
112
187
239
220
97
55
73
81
65
215
143
235
60
107
56
196
207
18
201
84
77
176
163
5
175
111
99
39
217
108
70
219
36
127
87
82
192
144
150
123
159
170
125
75
153
185
149
233
224
218
64
116
67
122
115
62
147
14
113
41
226
68
72
103
211
246
137
120

> <PUBCHEM_MMFF94_PARTIAL_CHARGES>
52
1 -0.19
10 -0.63
11 0.27
12 0.27
13 0.37
14 0.37
15 0.27
17 0.1
18 0.06
19 0.08
2 -0.36
20 -0.15
21 0.57
22 -0.15
23 -0.15
24 -0.15
25 0.36
26 0.45
27 0.28
28 0.54
29 0.09
3 -0.57
30 0.12
31 0.18
33 -0.15
34 -0.15
35 -0.15
36 -0.15
37 -0.15
38 0.19
39 -0.15
4 -0.57
40 -0.15
41 0.08
42 0.28
5 -0.36
57 0.15
58 0.15
59 0.15
6 -0.81
60 0.15
61 0.37
69 0.15
7 -0.84
70 0.15
71 0.15
72 0.15
73 0.15
74 0.15
75 0.15
8 -0.73
9 -0.24

> <PUBCHEM_EFFECTIVE_ROTOR_COUNT>
13.2

> <PUBCHEM_PHARMACOPHORE_FEATURES>
12
1 2 acceptor
1 3 acceptor
1 4 acceptor
1 5 acceptor
1 6 cation
1 7 cation
1 8 donor
6 17 19 20 22 23 24 rings
6 29 31 33 34 37 38 rings
6 30 35 36 39 40 41 rings
6 6 7 11 12 13 14 rings
6 9 10 26 28 29 31 rings

> <PUBCHEM_HEAVY_ATOM_COUNT>
42

> <PUBCHEM_ATOM_DEF_STEREO_COUNT>
0

> <PUBCHEM_ATOM_UDEF_STEREO_COUNT>
0

> <PUBCHEM_BOND_DEF_STEREO_COUNT>
0

> <PUBCHEM_BOND_UDEF_STEREO_COUNT>
0

> <PUBCHEM_ISOTOPIC_ATOM_COUNT>
0

> <PUBCHEM_COMPONENT_COUNT>
1

> <PUBCHEM_CACTVS_TAUTO_COUNT>
2

> <PUBCHEM_CONFORMER_ID>
02A648A700000001

> <PUBCHEM_MMFF94_ENERGY>
150.4454

> <PUBCHEM_FEATURE_SELFOVERLAP>
60.93

> <PUBCHEM_SHAPE_FINGERPRINT>
10258939 38 17774728657963080647
10305334 12 18269836419713643305
11434127 23 18123183774124232408
12128747 34 18341900723197369154
14020679 6 18268154158771003006
14468879 13 17845953874032115685
15773879 134 18339359664997694609
16067690 210 18200865292122363481
19304152 47 17625804339261646040
19315092 285 16816586969070992452
27425 322 18341891866389807681
376196 1 17987250953497169165
469060 322 17126490836587916487
5951187 136 17626959573156686025

> <PUBCHEM_SHAPE_MULTIPOLES>
808.68
11.45
6.97
4.31
12.53
3.47
6.2
-13.2
-5.61
-4.94
-7.23
-1.26
1.25
-1.18

> <PUBCHEM_SHAPE_SELFOVERLAP>
1737.734

> <PUBCHEM_SHAPE_VOLUME>
446.4

> <PUBCHEM_COORDINATE_TYPE>
2
5
10

$$$$
