44452327
  -OEChem-03232009353D

 73 77  0     0  0  0  0  0  0999 V2000
    2.2409   -5.9255    0.4416 F   0  0  0  0  0  0  0  0  0  0  0  0
    3.2047    0.6190    3.2955 O   0  0  0  0  0  0  0  0  0  0  0  0
    0.8811   -0.6757   -2.7399 O   0  0  0  0  0  0  0  0  0  0  0  0
   -0.7811    0.7869    2.5057 N   0  0  0  0  0  0  0  0  0  0  0  0
   -3.0893    0.5327    0.8423 N   0  0  0  0  0  0  0  0  0  0  0  0
    3.0709    1.7506    1.2691 N   0  0  0  0  0  0  0  0  0  0  0  0
    2.4539    0.1798   -1.2089 N   0  0  0  0  0  0  0  0  0  0  0  0
    3.4328   -1.2980    0.3782 N   0  0  0  0  0  0  0  0  0  0  0  0
   -2.0564    1.3932    2.9065 C   0  0  0  0  0  0  0  0  0  0  0  0
   -1.0299   -0.4569    1.7663 C   0  0  0  0  0  0  0  0  0  0  0  0
   -2.9183    1.7206    1.6845 C   0  0  0  0  0  0  0  0  0  0  0  0
   -1.8564   -0.1906    0.5063 C   0  0  0  0  0  0  0  0  0  0  0  0
    0.0550    0.5286    3.6775 C   0  0  0  0  0  0  0  0  0  0  0  0
   -4.1551    0.4708   -0.0622 C   0  0  0  0  0  0  0  0  0  0  0  0
    0.7141    1.8250    4.1520 C   0  0  0  0  0  0  0  0  0  0  0  0
   -5.1146   -0.5375    0.0305 C   0  0  0  0  0  0  0  0  0  0  0  0
    1.6197    2.4384    3.0843 C   0  0  0  0  0  0  0  0  0  0  0  0
   -4.2502    1.4338   -1.0668 C   0  0  0  0  0  0  0  0  0  0  0  0
   -6.1690   -0.5827   -0.8816 C   0  0  0  0  0  0  0  0  0  0  0  0
   -5.0153   -1.5732    1.1061 C   0  0  0  0  0  0  0  0  0  0  0  0
   -5.3047    1.3885   -1.9789 C   0  0  0  0  0  0  0  0  0  0  0  0
    2.7144    1.5028    2.5982 C   0  0  0  0  0  0  0  0  0  0  0  0
   -6.2641    0.3803   -1.8863 C   0  0  0  0  0  0  0  0  0  0  0  0
   -7.2096   -1.6514   -0.8050 C   0  0  0  0  0  0  0  0  0  0  0  0
    4.0546    0.9976    0.5646 C   0  0  0  0  0  0  0  0  0  0  0  0
    3.2904   -0.1119   -0.1286 C   0  0  0  0  0  0  0  0  0  0  0  0
    1.6370   -0.8181   -1.7815 C   0  0  0  0  0  0  0  0  0  0  0  0
    1.7723   -2.1663   -1.1909 C   0  0  0  0  0  0  0  0  0  0  0  0
    2.6835   -2.3532   -0.1516 C   0  0  0  0  0  0  0  0  0  0  0  0
    2.4153    1.4823   -1.8149 C   0  0  0  0  0  0  0  0  0  0  0  0
    1.0194   -3.2393   -1.6828 C   0  0  0  0  0  0  0  0  0  0  0  0
    2.8345   -3.6329    0.3952 C   0  0  0  0  0  0  0  0  0  0  0  0
    1.2139    2.1884   -1.8757 C   0  0  0  0  0  0  0  0  0  0  0  0
    3.5797    2.0406   -2.3426 C   0  0  0  0  0  0  0  0  0  0  0  0
    1.1789   -4.5086   -1.1287 C   0  0  0  0  0  0  0  0  0  0  0  0
    2.0868   -4.7062   -0.0911 C   0  0  0  0  0  0  0  0  0  0  0  0
    1.1767    3.4526   -2.4640 C   0  0  0  0  0  0  0  0  0  0  0  0
    3.5426    3.3049   -2.9307 C   0  0  0  0  0  0  0  0  0  0  0  0
    2.3409    4.0107   -2.9915 C   0  0  0  0  0  0  0  0  0  0  0  0
   -1.8992    2.3296    3.4514 H   0  0  0  0  0  0  0  0  0  0  0  0
   -2.6138    0.7198    3.5719 H   0  0  0  0  0  0  0  0  0  0  0  0
   -1.5489   -1.1878    2.4010 H   0  0  0  0  0  0  0  0  0  0  0  0
   -0.0793   -0.9082    1.4567 H   0  0  0  0  0  0  0  0  0  0  0  0
   -3.8939    2.0843    2.0298 H   0  0  0  0  0  0  0  0  0  0  0  0
   -2.4506    2.5246    1.1020 H   0  0  0  0  0  0  0  0  0  0  0  0
   -1.2733    0.3974   -0.2127 H   0  0  0  0  0  0  0  0  0  0  0  0
   -2.0884   -1.1516    0.0307 H   0  0  0  0  0  0  0  0  0  0  0  0
    0.8331   -0.2057    3.4406 H   0  0  0  0  0  0  0  0  0  0  0  0
   -0.5284    0.0867    4.4961 H   0  0  0  0  0  0  0  0  0  0  0  0
   -0.0240    2.5648    4.4783 H   0  0  0  0  0  0  0  0  0  0  0  0
    1.3179    1.5915    5.0384 H   0  0  0  0  0  0  0  0  0  0  0  0
    2.1170    3.3230    3.5001 H   0  0  0  0  0  0  0  0  0  0  0  0
    1.0177    2.7843    2.2361 H   0  0  0  0  0  0  0  0  0  0  0  0
   -3.5082    2.2230   -1.1588 H   0  0  0  0  0  0  0  0  0  0  0  0
   -4.5853   -2.4946    0.7001 H   0  0  0  0  0  0  0  0  0  0  0  0
   -4.3966   -1.2533    1.9504 H   0  0  0  0  0  0  0  0  0  0  0  0
   -5.9958   -1.7978    1.5387 H   0  0  0  0  0  0  0  0  0  0  0  0
   -5.3777    2.1375   -2.7619 H   0  0  0  0  0  0  0  0  0  0  0  0
   -7.0794    0.3604   -2.6045 H   0  0  0  0  0  0  0  0  0  0  0  0
   -6.7502   -2.6449   -0.7744 H   0  0  0  0  0  0  0  0  0  0  0  0
   -7.8390   -1.5109    0.0796 H   0  0  0  0  0  0  0  0  0  0  0  0
   -7.8678   -1.6366   -1.6810 H   0  0  0  0  0  0  0  0  0  0  0  0
    2.6177    2.5145    0.7765 H   0  0  0  0  0  0  0  0  0  0  0  0
    4.5987    1.6568   -0.1063 H   0  0  0  0  0  0  0  0  0  0  0  0
    4.7739    0.5698    1.2714 H   0  0  0  0  0  0  0  0  0  0  0  0
    0.3085   -3.1073   -2.4937 H   0  0  0  0  0  0  0  0  0  0  0  0
    3.5356   -3.8010    1.2091 H   0  0  0  0  0  0  0  0  0  0  0  0
    0.2999    1.7740   -1.4598 H   0  0  0  0  0  0  0  0  0  0  0  0
    4.5180    1.4918   -2.3380 H   0  0  0  0  0  0  0  0  0  0  0  0
    0.5967   -5.3437   -1.5070 H   0  0  0  0  0  0  0  0  0  0  0  0
    0.2416    4.0032   -2.5090 H   0  0  0  0  0  0  0  0  0  0  0  0
    4.4474    3.7362   -3.3488 H   0  0  0  0  0  0  0  0  0  0  0  0
    2.3118    4.9944   -3.4507 H   0  0  0  0  0  0  0  0  0  0  0  0
  1 36  1  0  0  0  0
  2 22  2  0  0  0  0
  3 27  2  0  0  0  0
  4  9  1  0  0  0  0
  4 10  1  0  0  0  0
  4 13  1  0  0  0  0
  5 11  1  0  0  0  0
  5 12  1  0  0  0  0
  5 14  1  0  0  0  0
  6 22  1  0  0  0  0
  6 25  1  0  0  0  0
  6 63  1  0  0  0  0
  7 26  1  0  0  0  0
  7 27  1  0  0  0  0
  7 30  1  0  0  0  0
  8 26  2  0  0  0  0
  8 29  1  0  0  0  0
  9 11  1  0  0  0  0
  9 40  1  0  0  0  0
  9 41  1  0  0  0  0
 10 12  1  0  0  0  0
 10 42  1  0  0  0  0
 10 43  1  0  0  0  0
 11 44  1  0  0  0  0
 11 45  1  0  0  0  0
 12 46  1  0  0  0  0
 12 47  1  0  0  0  0
 13 15  1  0  0  0  0
 13 48  1  0  0  0  0
 13 49  1  0  0  0  0
 14 16  1  0  0  0  0
 14 18  2  0  0  0  0
 15 17  1  0  0  0  0
 15 50  1  0  0  0  0
 15 51  1  0  0  0  0
 16 19  2  0  0  0  0
 16 20  1  0  0  0  0
 17 22  1  0  0  0  0
 17 52  1  0  0  0  0
 17 53  1  0  0  0  0
 18 21  1  0  0  0  0
 18 54  1  0  0  0  0
 19 23  1  0  0  0  0
 19 24  1  0  0  0  0
 20 55  1  0  0  0  0
 20 56  1  0  0  0  0
 20 57  1  0  0  0  0
 21 23  2  0  0  0  0
 21 58  1  0  0  0  0
 23 59  1  0  0  0  0
 24 60  1  0  0  0  0
 24 61  1  0  0  0  0
 24 62  1  0  0  0  0
 25 26  1  0  0  0  0
 25 64  1  0  0  0  0
 25 65  1  0  0  0  0
 27 28  1  0  0  0  0
 28 29  2  0  0  0  0
 28 31  1  0  0  0  0
 29 32  1  0  0  0  0
 30 33  2  0  0  0  0
 30 34  1  0  0  0  0
 31 35  2  0  0  0  0
 31 66  1  0  0  0  0
 32 36  2  0  0  0  0
 32 67  1  0  0  0  0
 33 37  1  0  0  0  0
 33 68  1  0  0  0  0
 34 38  2  0  0  0  0
 34 69  1  0  0  0  0
 35 36  1  0  0  0  0
 35 70  1  0  0  0  0
 37 39  2  0  0  0  0
 37 71  1  0  0  0  0
 38 39  1  0  0  0  0
 38 72  1  0  0  0  0
 39 73  1  0  0  0  0
M  END
> <PUBCHEM_COMPOUND_CID>
44452327

> <PUBCHEM_CONFORMER_RMSD>
1.6

> <PUBCHEM_CONFORMER_DIVERSEORDER>
1
10
68
17
25
11
57
40
22
79
48
39
54
55
82
35
64
9
44
56
85
49
60
51
62
81
26
75
31
70
69
23
88
77
28
83
72
50
58
19
4
47
20
65
42
27
45
53
13
3
71
38
21
33
67
34
87
6
59
73
61
76
2
15
5
16
78
8
86
24
63
14
36
66
43
37
29
52
41
84
46
32
7
30
74
18
12
80

> <PUBCHEM_MMFF94_PARTIAL_CHARGES>
50
1 -0.19
10 0.27
11 0.37
12 0.37
13 0.27
14 0.1
16 -0.14
17 0.06
18 -0.15
19 -0.14
2 -0.57
20 0.14
21 -0.15
22 0.57
23 -0.15
24 0.14
25 0.36
26 0.45
27 0.54
28 0.09
29 0.18
3 -0.57
30 0.12
31 -0.15
32 -0.15
33 -0.15
34 -0.15
35 -0.15
36 0.19
37 -0.15
38 -0.15
39 -0.15
4 -0.81
5 -0.84
54 0.15
58 0.15
59 0.15
6 -0.73
63 0.37
66 0.15
67 0.15
68 0.15
69 0.15
7 -0.24
70 0.15
71 0.15
72 0.15
73 0.15
8 -0.63
9 0.27

> <PUBCHEM_EFFECTIVE_ROTOR_COUNT>
10.2

> <PUBCHEM_PHARMACOPHORE_FEATURES>
10
1 2 acceptor
1 3 acceptor
1 4 cation
1 5 cation
1 6 donor
6 14 16 18 19 21 23 rings
6 28 29 31 32 35 36 rings
6 30 33 34 37 38 39 rings
6 4 5 9 10 11 12 rings
6 7 8 26 27 28 29 rings

> <PUBCHEM_HEAVY_ATOM_COUNT>
39

> <PUBCHEM_ATOM_DEF_STEREO_COUNT>
0

> <PUBCHEM_ATOM_UDEF_STEREO_COUNT>
0

> <PUBCHEM_BOND_DEF_STEREO_COUNT>
0

> <PUBCHEM_BOND_UDEF_STEREO_COUNT>
0

> <PUBCHEM_ISOTOPIC_ATOM_COUNT>
0

> <PUBCHEM_COMPONENT_COUNT>
1

> <PUBCHEM_CACTVS_TAUTO_COUNT>
2

> <PUBCHEM_CONFORMER_ID>
02A649E700000001

> <PUBCHEM_MMFF94_ENERGY>
132.8235

> <PUBCHEM_FEATURE_SELFOVERLAP>
50.779

> <PUBCHEM_SHAPE_FINGERPRINT>
11093857 51 18337400430309714670
11763715 3 17415861114213377579
12156800 1 17261309718686898336
14114206 34 17485687932350215144
15815584 197 17559937974538959785
19315092 285 18058441019732864506
20764821 26 17915170437440452227
25222932 49 17203320109305692597
25223398 141 18051121789833578170
376196 1 17532664631081886469
484985 159 16467834465111251394
513532 50 17894899712094628520
5223283 242 17826232887900780317
550186 7 15870871643581333012
57527452 28 18272088327492510668
59025328 239 18118688707985092038
5951187 136 17530681013537272109
6669772 16 17629736097576987475
6677587 24 17969766665547051453
86090 222 17701258281445853307

> <PUBCHEM_SHAPE_MULTIPOLES>
758.68
11.61
5.56
4.37
26.14
7.38
3.61
-0.33
-5.42
-7.77
-3.33
-2.66
-4.6
-1.09

> <PUBCHEM_SHAPE_SELFOVERLAP>
1640.27

> <PUBCHEM_SHAPE_VOLUME>
416.3

> <PUBCHEM_COORDINATE_TYPE>
2
5
10

$$$$
