44451982
  -OEChem-03232009353D

 73 77  0     0  0  0  0  0  0999 V2000
   -0.2475    5.7739   -0.1297 F   0  0  0  0  0  0  0  0  0  0  0  0
   -3.2582   -1.2648    3.1510 O   0  0  0  0  0  0  0  0  0  0  0  0
   -0.9081    1.3652   -2.4232 O   0  0  0  0  0  0  0  0  0  0  0  0
    0.7109   -1.4135    2.2777 N   0  0  0  0  0  0  0  0  0  0  0  0
    3.0200   -0.8635    0.6891 N   0  0  0  0  0  0  0  0  0  0  0  0
   -3.1891   -1.8696    0.9072 N   0  0  0  0  0  0  0  0  0  0  0  0
   -2.5105    0.2316   -1.1208 N   0  0  0  0  0  0  0  0  0  0  0  0
   -3.4093    1.3177    0.7959 N   0  0  0  0  0  0  0  0  0  0  0  0
    1.9577   -2.1565    2.4966 C   0  0  0  0  0  0  0  0  0  0  0  0
    1.0151   -0.0389    1.8615 C   0  0  0  0  0  0  0  0  0  0  0  0
    2.7967   -2.2127    1.2176 C   0  0  0  0  0  0  0  0  0  0  0  0
    1.8216   -0.0250    0.5609 C   0  0  0  0  0  0  0  0  0  0  0  0
   -0.1059   -1.4131    3.4909 C   0  0  0  0  0  0  0  0  0  0  0  0
    4.0831   -0.6297   -0.1903 C   0  0  0  0  0  0  0  0  0  0  0  0
   -0.8239   -2.7552    3.6445 C   0  0  0  0  0  0  0  0  0  0  0  0
    5.0899    0.2809    0.1303 C   0  0  0  0  0  0  0  0  0  0  0  0
   -1.7633   -3.0464    2.4744 C   0  0  0  0  0  0  0  0  0  0  0  0
    4.1271   -1.3201   -1.4017 C   0  0  0  0  0  0  0  0  0  0  0  0
    6.1407    0.5014   -0.7603 C   0  0  0  0  0  0  0  0  0  0  0  0
    5.0464    1.0239    1.4286 C   0  0  0  0  0  0  0  0  0  0  0  0
    5.1781   -1.0999   -2.2922 C   0  0  0  0  0  0  0  0  0  0  0  0
   -2.8144   -1.9718    2.2503 C   0  0  0  0  0  0  0  0  0  0  0  0
    6.1847   -0.1890   -1.9716 C   0  0  0  0  0  0  0  0  0  0  0  0
    7.2316    1.4704   -0.4411 C   0  0  0  0  0  0  0  0  0  0  0  0
   -4.1391   -0.9231    0.4249 C   0  0  0  0  0  0  0  0  0  0  0  0
   -3.3263    0.2870    0.0119 C   0  0  0  0  0  0  0  0  0  0  0  0
   -1.6499    1.3016   -1.4457 C   0  0  0  0  0  0  0  0  0  0  0  0
   -1.7173    2.4683   -0.5406 C   0  0  0  0  0  0  0  0  0  0  0  0
   -2.6133    2.4358    0.5278 C   0  0  0  0  0  0  0  0  0  0  0  0
   -2.5385   -0.8823   -2.0284 C   0  0  0  0  0  0  0  0  0  0  0  0
   -0.9170    3.5944   -0.7681 C   0  0  0  0  0  0  0  0  0  0  0  0
   -2.7008    3.5483    1.3729 C   0  0  0  0  0  0  0  0  0  0  0  0
   -1.3724   -1.6048   -2.2814 C   0  0  0  0  0  0  0  0  0  0  0  0
   -3.7311   -1.2400   -2.6572 C   0  0  0  0  0  0  0  0  0  0  0  0
   -1.0137    4.6956    0.0814 C   0  0  0  0  0  0  0  0  0  0  0  0
   -1.9057    4.6734    1.1508 C   0  0  0  0  0  0  0  0  0  0  0  0
   -1.3990   -2.6853   -3.1632 C   0  0  0  0  0  0  0  0  0  0  0  0
   -3.7576   -2.3206   -3.5391 C   0  0  0  0  0  0  0  0  0  0  0  0
   -2.5915   -3.0434   -3.7919 C   0  0  0  0  0  0  0  0  0  0  0  0
    1.7586   -3.1899    2.7983 H   0  0  0  0  0  0  0  0  0  0  0  0
    2.5501   -1.6928    3.2973 H   0  0  0  0  0  0  0  0  0  0  0  0
    1.5717    0.4897    2.6470 H   0  0  0  0  0  0  0  0  0  0  0  0
    0.0858    0.5171    1.6876 H   0  0  0  0  0  0  0  0  0  0  0  0
    3.7556   -2.6937    1.4472 H   0  0  0  0  0  0  0  0  0  0  0  0
    2.2883   -2.8273    0.4638 H   0  0  0  0  0  0  0  0  0  0  0  0
    1.2074   -0.3916   -0.2702 H   0  0  0  0  0  0  0  0  0  0  0  0
    2.0968    1.0118    0.3314 H   0  0  0  0  0  0  0  0  0  0  0  0
   -0.8493   -0.6088    3.4540 H   0  0  0  0  0  0  0  0  0  0  0  0
    0.5020   -1.2124    4.3829 H   0  0  0  0  0  0  0  0  0  0  0  0
   -0.1205   -3.5850    3.7674 H   0  0  0  0  0  0  0  0  0  0  0  0
   -1.4115   -2.7193    4.5711 H   0  0  0  0  0  0  0  0  0  0  0  0
   -2.3001   -3.9826    2.6692 H   0  0  0  0  0  0  0  0  0  0  0  0
   -1.1828   -3.2004    1.5575 H   0  0  0  0  0  0  0  0  0  0  0  0
    3.3480   -2.0284   -1.6719 H   0  0  0  0  0  0  0  0  0  0  0  0
    4.6618    2.0363    1.2679 H   0  0  0  0  0  0  0  0  0  0  0  0
    4.4150    0.5366    2.1781 H   0  0  0  0  0  0  0  0  0  0  0  0
    6.0383    1.0878    1.8876 H   0  0  0  0  0  0  0  0  0  0  0  0
    5.2116   -1.6366   -3.2358 H   0  0  0  0  0  0  0  0  0  0  0  0
    6.9964   -0.0301   -2.6765 H   0  0  0  0  0  0  0  0  0  0  0  0
    6.8206    2.4455   -0.1597 H   0  0  0  0  0  0  0  0  0  0  0  0
    7.8582    1.0883    0.3712 H   0  0  0  0  0  0  0  0  0  0  0  0
    7.8837    1.6417   -1.3049 H   0  0  0  0  0  0  0  0  0  0  0  0
   -2.7754   -2.5090    0.2351 H   0  0  0  0  0  0  0  0  0  0  0  0
   -4.7174   -1.3724   -0.3778 H   0  0  0  0  0  0  0  0  0  0  0  0
   -4.8336   -0.6499    1.2268 H   0  0  0  0  0  0  0  0  0  0  0  0
   -0.2170    3.6333   -1.5980 H   0  0  0  0  0  0  0  0  0  0  0  0
   -3.3892    3.5429    2.2148 H   0  0  0  0  0  0  0  0  0  0  0  0
   -0.4374   -1.3472   -1.7921 H   0  0  0  0  0  0  0  0  0  0  0  0
   -4.6421   -0.6677   -2.5019 H   0  0  0  0  0  0  0  0  0  0  0  0
   -1.9807    5.5305    1.8135 H   0  0  0  0  0  0  0  0  0  0  0  0
   -0.4916   -3.2493   -3.3582 H   0  0  0  0  0  0  0  0  0  0  0  0
   -4.6842   -2.5943   -4.0352 H   0  0  0  0  0  0  0  0  0  0  0  0
   -2.6120   -3.8839   -4.4794 H   0  0  0  0  0  0  0  0  0  0  0  0
  1 35  1  0  0  0  0
  2 22  2  0  0  0  0
  3 27  2  0  0  0  0
  4  9  1  0  0  0  0
  4 10  1  0  0  0  0
  4 13  1  0  0  0  0
  5 11  1  0  0  0  0
  5 12  1  0  0  0  0
  5 14  1  0  0  0  0
  6 22  1  0  0  0  0
  6 25  1  0  0  0  0
  6 63  1  0  0  0  0
  7 26  1  0  0  0  0
  7 27  1  0  0  0  0
  7 30  1  0  0  0  0
  8 26  2  0  0  0  0
  8 29  1  0  0  0  0
  9 11  1  0  0  0  0
  9 40  1  0  0  0  0
  9 41  1  0  0  0  0
 10 12  1  0  0  0  0
 10 42  1  0  0  0  0
 10 43  1  0  0  0  0
 11 44  1  0  0  0  0
 11 45  1  0  0  0  0
 12 46  1  0  0  0  0
 12 47  1  0  0  0  0
 13 15  1  0  0  0  0
 13 48  1  0  0  0  0
 13 49  1  0  0  0  0
 14 16  1  0  0  0  0
 14 18  2  0  0  0  0
 15 17  1  0  0  0  0
 15 50  1  0  0  0  0
 15 51  1  0  0  0  0
 16 19  2  0  0  0  0
 16 20  1  0  0  0  0
 17 22  1  0  0  0  0
 17 52  1  0  0  0  0
 17 53  1  0  0  0  0
 18 21  1  0  0  0  0
 18 54  1  0  0  0  0
 19 23  1  0  0  0  0
 19 24  1  0  0  0  0
 20 55  1  0  0  0  0
 20 56  1  0  0  0  0
 20 57  1  0  0  0  0
 21 23  2  0  0  0  0
 21 58  1  0  0  0  0
 23 59  1  0  0  0  0
 24 60  1  0  0  0  0
 24 61  1  0  0  0  0
 24 62  1  0  0  0  0
 25 26  1  0  0  0  0
 25 64  1  0  0  0  0
 25 65  1  0  0  0  0
 27 28  1  0  0  0  0
 28 29  2  0  0  0  0
 28 31  1  0  0  0  0
 29 32  1  0  0  0  0
 30 33  2  0  0  0  0
 30 34  1  0  0  0  0
 31 35  2  0  0  0  0
 31 66  1  0  0  0  0
 32 36  2  0  0  0  0
 32 67  1  0  0  0  0
 33 37  1  0  0  0  0
 33 68  1  0  0  0  0
 34 38  2  0  0  0  0
 34 69  1  0  0  0  0
 35 36  1  0  0  0  0
 36 70  1  0  0  0  0
 37 39  2  0  0  0  0
 37 71  1  0  0  0  0
 38 39  1  0  0  0  0
 38 72  1  0  0  0  0
 39 73  1  0  0  0  0
M  END
> <PUBCHEM_COMPOUND_CID>
44451982

> <PUBCHEM_CONFORMER_RMSD>
1.6

> <PUBCHEM_CONFORMER_DIVERSEORDER>
1
50
51
42
52
48
58
63
34
10
39
77
68
54
69
43
87
71
19
79
80
57
9
60
84
55
74
85
22
81
14
38
64
72
15
8
59
21
49
86
70
65
67
11
56
41
2
23
53
36
5
3
40
24
4
20
25
16
66
82
47
33
31
13
35
73
75
37
44
83
32
45
29
78
61
30
12
6
62
17
46
7
26
28
76
27
18

> <PUBCHEM_MMFF94_PARTIAL_CHARGES>
50
1 -0.19
10 0.27
11 0.37
12 0.37
13 0.27
14 0.1
16 -0.14
17 0.06
18 -0.15
19 -0.14
2 -0.57
20 0.14
21 -0.15
22 0.57
23 -0.15
24 0.14
25 0.36
26 0.45
27 0.54
28 0.09
29 0.18
3 -0.57
30 0.12
31 -0.15
32 -0.15
33 -0.15
34 -0.15
35 0.19
36 -0.15
37 -0.15
38 -0.15
39 -0.15
4 -0.81
5 -0.84
54 0.15
58 0.15
59 0.15
6 -0.73
63 0.37
66 0.15
67 0.15
68 0.15
69 0.15
7 -0.24
70 0.15
71 0.15
72 0.15
73 0.15
8 -0.63
9 0.27

> <PUBCHEM_EFFECTIVE_ROTOR_COUNT>
10.2

> <PUBCHEM_PHARMACOPHORE_FEATURES>
10
1 2 acceptor
1 3 acceptor
1 4 cation
1 5 cation
1 6 donor
6 14 16 18 19 21 23 rings
6 28 29 31 32 35 36 rings
6 30 33 34 37 38 39 rings
6 4 5 9 10 11 12 rings
6 7 8 26 27 28 29 rings

> <PUBCHEM_HEAVY_ATOM_COUNT>
39

> <PUBCHEM_ATOM_DEF_STEREO_COUNT>
0

> <PUBCHEM_ATOM_UDEF_STEREO_COUNT>
0

> <PUBCHEM_BOND_DEF_STEREO_COUNT>
0

> <PUBCHEM_BOND_UDEF_STEREO_COUNT>
0

> <PUBCHEM_ISOTOPIC_ATOM_COUNT>
0

> <PUBCHEM_COMPONENT_COUNT>
1

> <PUBCHEM_CACTVS_TAUTO_COUNT>
2

> <PUBCHEM_CONFORMER_ID>
02A6488E00000001

> <PUBCHEM_MMFF94_ENERGY>
132.8156

> <PUBCHEM_FEATURE_SELFOVERLAP>
50.779

> <PUBCHEM_SHAPE_FINGERPRINT>
10305334 12 17754473265165342357
11049842 53 17049903911873273592
11434127 23 18188228549619393814
11578080 2 16913992275501904305
11607047 403 17982472408034194819
12156800 1 16889268708030532507
12788726 201 18193533607323833429
13615921 28 18189063138894505029
14068700 675 17533799340488977371
14114206 34 18188755198176536845
14114207 22 16267461841345331075
14279260 333 18116720604522474330
14910302 57 17417796357973535558
15448158 6 15264787814299674134
15968369 153 18196670686134544116
16067690 210 18337961064938393484
161222 619 17832420178827471160
19319366 153 17827359877991396752
20764821 26 17897182401508798432
27425 322 17901402103528897460
354706 132 18041859315947449124
469060 322 18200883996705158815
50150288 127 18265896856714100833
54131252 337 17185028913081993366
550186 7 18194987174073817490
57527306 92 18408605873040298975

> <PUBCHEM_SHAPE_MULTIPOLES>
758.68
11.53
5.49
4.38
25.14
8.73
1.12
-0.94
-5.49
-6.02
-0.78
-3.34
-5.68
-1.49

> <PUBCHEM_SHAPE_SELFOVERLAP>
1640.222

> <PUBCHEM_SHAPE_VOLUME>
416

> <PUBCHEM_COORDINATE_TYPE>
2
5
10

$$$$
