53320009
  -OEChem-03232009353D

 56 60  0     1  0  0  0  0  0999 V2000
    1.9064    2.0558    0.7852 S   0  0  0  0  0  0  0  0  0  0  0  0
    2.6426    3.3018    0.7805 O   0  0  0  0  0  0  0  0  0  0  0  0
    1.8413    1.2332    1.9743 O   0  0  0  0  0  0  0  0  0  0  0  0
    5.5911   -1.4604    0.1011 O   0  0  0  0  0  0  0  0  0  0  0  0
   -0.6769   -2.6520   -0.1608 N   0  0  0  0  0  0  0  0  0  0  0  0
   -3.4082   -3.4668    0.0272 N   0  0  0  0  0  0  0  0  0  0  0  0
    2.4300    1.0910   -0.5317 N   0  0  2  0  0  0  0  0  0  0  0  0
   -1.7000   -1.9836   -0.9707 C   0  0  0  0  0  0  0  0  0  0  0  0
   -1.1637   -3.3207    1.0523 C   0  0  0  0  0  0  0  0  0  0  0  0
   -2.8792   -2.9244   -1.2301 C   0  0  0  0  0  0  0  0  0  0  0  0
   -2.3594   -4.2189    0.7271 C   0  0  0  0  0  0  0  0  0  0  0  0
    0.6358   -2.1672   -0.1625 C   0  0  0  0  0  0  0  0  0  0  0  0
    2.1919   -0.3249   -0.3649 C   0  0  0  0  0  0  0  0  0  0  0  0
    3.7606    1.4234   -1.1079 C   0  0  0  0  0  0  0  0  0  0  0  0
    3.2584   -1.2079   -0.1466 C   0  0  0  0  0  0  0  0  0  0  0  0
    0.8789   -0.8077   -0.3580 C   0  0  0  0  0  0  0  0  0  0  0  0
    4.8644    0.7888   -0.2812 C   0  0  0  0  0  0  0  0  0  0  0  0
    4.6525   -0.6992   -0.1121 C   0  0  0  0  0  0  0  0  0  0  0  0
    1.6993   -3.0465    0.0376 C   0  0  0  0  0  0  0  0  0  0  0  0
    3.0110   -2.5707    0.0481 C   0  0  0  0  0  0  0  0  0  0  0  0
   -4.5672   -4.3208   -0.2298 C   0  0  0  0  0  0  0  0  0  0  0  0
    0.2526    2.4038    0.2747 C   0  0  0  0  0  0  0  0  0  0  0  0
   -0.8222    1.8313    0.9556 C   0  0  0  0  0  0  0  0  0  0  0  0
    0.0219    3.2491   -0.8065 C   0  0  0  0  0  0  0  0  0  0  0  0
   -2.1437    2.0981    0.5621 C   0  0  0  0  0  0  0  0  0  0  0  0
   -2.3783    2.9577   -0.5374 C   0  0  0  0  0  0  0  0  0  0  0  0
   -1.2845    3.5252   -1.2111 C   0  0  0  0  0  0  0  0  0  0  0  0
   -3.2375    1.5305    1.2357 C   0  0  0  0  0  0  0  0  0  0  0  0
   -3.6998    3.2243   -0.9310 C   0  0  0  0  0  0  0  0  0  0  0  0
   -4.5439    1.8064    0.8311 C   0  0  0  0  0  0  0  0  0  0  0  0
   -4.7746    2.6517   -0.2502 C   0  0  0  0  0  0  0  0  0  0  0  0
   -1.2898   -1.6783   -1.9414 H   0  0  0  0  0  0  0  0  0  0  0  0
   -2.0572   -1.0842   -0.4537 H   0  0  0  0  0  0  0  0  0  0  0  0
   -1.4522   -2.5609    1.7904 H   0  0  0  0  0  0  0  0  0  0  0  0
   -0.3879   -3.9413    1.5153 H   0  0  0  0  0  0  0  0  0  0  0  0
   -3.6600   -2.3586   -1.7529 H   0  0  0  0  0  0  0  0  0  0  0  0
   -2.5608   -3.7358   -1.8986 H   0  0  0  0  0  0  0  0  0  0  0  0
   -2.0238   -5.0720    0.1219 H   0  0  0  0  0  0  0  0  0  0  0  0
   -2.7519   -4.6210    1.6690 H   0  0  0  0  0  0  0  0  0  0  0  0
    3.8981    2.5056   -1.1933 H   0  0  0  0  0  0  0  0  0  0  0  0
    3.7874    1.0380   -2.1360 H   0  0  0  0  0  0  0  0  0  0  0  0
    0.0592   -0.1321   -0.5604 H   0  0  0  0  0  0  0  0  0  0  0  0
    5.8248    0.9470   -0.7837 H   0  0  0  0  0  0  0  0  0  0  0  0
    4.9185    1.2357    0.7175 H   0  0  0  0  0  0  0  0  0  0  0  0
    1.5281   -4.1108    0.1780 H   0  0  0  0  0  0  0  0  0  0  0  0
    3.8224   -3.2747    0.2109 H   0  0  0  0  0  0  0  0  0  0  0  0
   -5.3638   -3.7498   -0.7196 H   0  0  0  0  0  0  0  0  0  0  0  0
   -4.3184   -5.1796   -0.8638 H   0  0  0  0  0  0  0  0  0  0  0  0
   -4.9839   -4.6963    0.7114 H   0  0  0  0  0  0  0  0  0  0  0  0
   -0.6484    1.1700    1.8018 H   0  0  0  0  0  0  0  0  0  0  0  0
    0.8491    3.6999   -1.3482 H   0  0  0  0  0  0  0  0  0  0  0  0
   -1.4412    4.1881   -2.0594 H   0  0  0  0  0  0  0  0  0  0  0  0
   -3.0810    0.8654    2.0825 H   0  0  0  0  0  0  0  0  0  0  0  0
   -3.9037    3.8819   -1.7735 H   0  0  0  0  0  0  0  0  0  0  0  0
   -5.3809    1.3603    1.3602 H   0  0  0  0  0  0  0  0  0  0  0  0
   -5.7919    2.8658   -0.5649 H   0  0  0  0  0  0  0  0  0  0  0  0
  1  2  2  0  0  0  0
  1  3  2  0  0  0  0
  1  7  1  0  0  0  0
  1 22  1  0  0  0  0
  4 18  2  0  0  0  0
  5  8  1  0  0  0  0
  5  9  1  0  0  0  0
  5 12  1  0  0  0  0
  6 10  1  0  0  0  0
  6 11  1  0  0  0  0
  6 21  1  0  0  0  0
  7 13  1  0  0  0  0
  7 14  1  0  0  0  0
  8 10  1  0  0  0  0
  8 32  1  0  0  0  0
  8 33  1  0  0  0  0
  9 11  1  0  0  0  0
  9 34  1  0  0  0  0
  9 35  1  0  0  0  0
 10 36  1  0  0  0  0
 10 37  1  0  0  0  0
 11 38  1  0  0  0  0
 11 39  1  0  0  0  0
 12 16  2  0  0  0  0
 12 19  1  0  0  0  0
 13 15  2  0  0  0  0
 13 16  1  0  0  0  0
 14 17  1  0  0  0  0
 14 40  1  0  0  0  0
 14 41  1  0  0  0  0
 15 18  1  0  0  0  0
 15 20  1  0  0  0  0
 16 42  1  0  0  0  0
 17 18  1  0  0  0  0
 17 43  1  0  0  0  0
 17 44  1  0  0  0  0
 19 20  2  0  0  0  0
 19 45  1  0  0  0  0
 20 46  1  0  0  0  0
 21 47  1  0  0  0  0
 21 48  1  0  0  0  0
 21 49  1  0  0  0  0
 22 23  2  0  0  0  0
 22 24  1  0  0  0  0
 23 25  1  0  0  0  0
 23 50  1  0  0  0  0
 24 27  2  0  0  0  0
 24 51  1  0  0  0  0
 25 26  1  0  0  0  0
 25 28  2  0  0  0  0
 26 27  1  0  0  0  0
 26 29  2  0  0  0  0
 27 52  1  0  0  0  0
 28 30  1  0  0  0  0
 28 53  1  0  0  0  0
 29 31  1  0  0  0  0
 29 54  1  0  0  0  0
 30 31  2  0  0  0  0
 30 55  1  0  0  0  0
 31 56  1  0  0  0  0
M  END
> <PUBCHEM_COMPOUND_CID>
53320009

> <PUBCHEM_CONFORMER_RMSD>
0.8

> <PUBCHEM_CONFORMER_DIVERSEORDER>
1
51
82
124
96
75
94
24
87
132
6
41
29
43
130
88
112
102
3
45
93
128
117
111
9
39
99
84
44
69
26
16
121
131
116
81
118
100
50
27
77
33
133
123
80
42
110
35
119
65
127
70
129
21
14
47
104
76
62
109
78
58
57
53
105
98
103
92
13
114
34
126
48
61
37
63
122
12
5
46
97
125
49
71
17
38
85
40
23
108
32
74
120
28
91
54
68
79
86
107
25
56
115
31
10
66
36
113
73
30
20
83
22
55
95
90
72
89
18
106
7
52
101
11
19
60
4
59
15
67
2
64
8

> <PUBCHEM_MMFF94_PARTIAL_CHARGES>
39
1 1.45
10 0.27
11 0.27
12 0.1
13 0.2
14 0.36
15 0.09
16 -0.15
17 0.06
18 0.42
19 -0.15
2 -0.65
20 -0.15
21 0.27
22 -0.01
23 -0.15
24 -0.15
27 -0.15
28 -0.15
29 -0.15
3 -0.65
30 -0.15
31 -0.15
4 -0.57
42 0.15
45 0.15
46 0.15
5 -0.84
50 0.15
51 0.15
52 0.15
53 0.15
54 0.15
55 0.15
56 0.15
6 -0.81
7 -0.69
8 0.37
9 0.37

> <PUBCHEM_EFFECTIVE_ROTOR_COUNT>
4.8

> <PUBCHEM_PHARMACOPHORE_FEATURES>
10
1 2 acceptor
1 3 acceptor
1 4 acceptor
1 5 cation
1 6 cation
6 12 13 15 16 19 20 rings
6 22 23 24 25 26 27 rings
6 25 26 28 29 30 31 rings
6 5 6 8 9 10 11 rings
6 7 13 14 15 17 18 rings

> <PUBCHEM_HEAVY_ATOM_COUNT>
31

> <PUBCHEM_ATOM_DEF_STEREO_COUNT>
0

> <PUBCHEM_ATOM_UDEF_STEREO_COUNT>
0

> <PUBCHEM_BOND_DEF_STEREO_COUNT>
0

> <PUBCHEM_BOND_UDEF_STEREO_COUNT>
0

> <PUBCHEM_ISOTOPIC_ATOM_COUNT>
0

> <PUBCHEM_COMPONENT_COUNT>
1

> <PUBCHEM_CACTVS_TAUTO_COUNT>
2

> <PUBCHEM_CONFORMER_ID>
032D994900000001

> <PUBCHEM_MMFF94_ENERGY>
102.6833

> <PUBCHEM_FEATURE_SELFOVERLAP>
50.818

> <PUBCHEM_SHAPE_FINGERPRINT>
10190206 1 17612335325963324492
10483366 6 17326912067084230276
10675989 125 17616535498476457533
10688039 33 18192150623174399507
1100329 8 18339359648282309010
11370993 70 18045505209634727220
11578080 2 17417229040418208786
12156800 1 18195214846032499298
13140716 1 18413107290518581072
13402501 40 18191313671761786353
1361 2 18193271889397248189
138480 1 16608288283571020359
140371 6 17830737912750462804
14866123 147 18264764372886650426
15210252 30 17540814331473247181
15483637 11 18410293636152718711
15968369 153 17916004932600874295
16728300 4 16884968393010158698
17138139 8 17841959318503112461
19930381 70 17472699122871992053
20028762 73 17622715427876305870
20587220 17 16979028323502195705
20764821 26 18264496263905420679
21133410 62 18043514042460481231
21133410 90 17274826917460165163
21641784 216 18046081594673145132
22223350 30 18270385119255902890
3052486 1 18337383958799053728
338550 245 18335708242737836445
4403749 210 17469021282642498386
463206 1 18340765953328888340
5171179 24 17986667272158421696
6438718 38 17988918959670026198
653340 110 18269267040394847936

> <PUBCHEM_SHAPE_MULTIPOLES>
609.26
9.22
6.84
1.17
2.71
4.94
-0.15
-0.42
0.47
-7.71
0.39
-0.36
-0.41
0.08

> <PUBCHEM_SHAPE_SELFOVERLAP>
1324.878

> <PUBCHEM_SHAPE_VOLUME>
333.1

> <PUBCHEM_COORDINATE_TYPE>
2
5
10

$$$$
