51003586
  -OEChem-03232009353D

 62 66  0     1  0  0  0  0  0999 V2000
    1.3737    0.9781   -1.6236 S   0  0  0  0  0  0  0  0  0  0  0  0
   -3.5580    1.6549   -0.2625 O   0  0  0  0  0  0  0  0  0  0  0  0
    1.7868    2.2991   -2.0377 O   0  0  0  0  0  0  0  0  0  0  0  0
    0.6309    0.1108   -2.5087 O   0  0  0  0  0  0  0  0  0  0  0  0
    0.5219    1.1057   -0.1349 N   0  0  1  0  0  0  0  0  0  0  0  0
   -4.0047   -0.8322    0.2485 N   0  0  0  0  0  0  0  0  0  0  0  0
   -6.8582   -0.8860    0.1300 N   0  0  0  0  0  0  0  0  0  0  0  0
   -0.0266    2.4608    0.1849 C   0  0  1  0  0  0  0  0  0  0  0  0
   -1.3891    2.6447   -0.4755 C   0  0  0  0  0  0  0  0  0  0  0  0
   -1.7617    0.1639    0.0655 C   0  0  0  0  0  0  0  0  0  0  0  0
   -0.3724   -0.0043    0.1177 C   0  0  0  0  0  0  0  0  0  0  0  0
   -2.6090   -0.9293    0.2762 C   0  0  0  0  0  0  0  0  0  0  0  0
   -0.0645    2.6620    1.7008 C   0  0  0  0  0  0  0  0  0  0  0  0
   -2.3417    1.5008   -0.2070 C   0  0  0  0  0  0  0  0  0  0  0  0
   -4.6845   -1.0277   -1.0382 C   0  0  0  0  0  0  0  0  0  0  0  0
   -4.7824   -1.1926    1.4380 C   0  0  0  0  0  0  0  0  0  0  0  0
   -6.0770   -0.3935   -1.0114 C   0  0  0  0  0  0  0  0  0  0  0  0
   -6.1725   -0.5539    1.3847 C   0  0  0  0  0  0  0  0  0  0  0  0
    0.1623   -1.2753    0.3579 C   0  0  0  0  0  0  0  0  0  0  0  0
   -2.0673   -2.1903    0.5270 C   0  0  0  0  0  0  0  0  0  0  0  0
    2.8061    0.1055   -1.0768 C   0  0  0  0  0  0  0  0  0  0  0  0
    1.3111    2.4903    2.3134 C   0  0  0  0  0  0  0  0  0  0  0  0
   -0.6849   -2.3636    0.5664 C   0  0  0  0  0  0  0  0  0  0  0  0
   -8.2046   -0.3153    0.1144 C   0  0  0  0  0  0  0  0  0  0  0  0
    3.7424    0.7433   -0.2624 C   0  0  0  0  0  0  0  0  0  0  0  0
    3.0015   -1.2187   -1.4580 C   0  0  0  0  0  0  0  0  0  0  0  0
    4.8879    0.0626    0.1813 C   0  0  0  0  0  0  0  0  0  0  0  0
    5.0864   -1.2840   -0.2064 C   0  0  0  0  0  0  0  0  0  0  0  0
    4.1337   -1.9102   -1.0264 C   0  0  0  0  0  0  0  0  0  0  0  0
    5.8408    0.6887    1.0012 C   0  0  0  0  0  0  0  0  0  0  0  0
    6.2321   -1.9646    0.2372 C   0  0  0  0  0  0  0  0  0  0  0  0
    6.9730   -0.0026    1.4327 C   0  0  0  0  0  0  0  0  0  0  0  0
    7.1684   -1.3268    1.0514 C   0  0  0  0  0  0  0  0  0  0  0  0
    0.6445    3.2372   -0.1998 H   0  0  0  0  0  0  0  0  0  0  0  0
   -1.8525    3.5725   -0.1211 H   0  0  0  0  0  0  0  0  0  0  0  0
   -1.2774    2.7180   -1.5639 H   0  0  0  0  0  0  0  0  0  0  0  0
   -0.4290    3.6723    1.9234 H   0  0  0  0  0  0  0  0  0  0  0  0
   -0.7577    1.9657    2.1862 H   0  0  0  0  0  0  0  0  0  0  0  0
   -4.2718   -0.8460    2.3450 H   0  0  0  0  0  0  0  0  0  0  0  0
   -4.8772   -2.2837    1.5058 H   0  0  0  0  0  0  0  0  0  0  0  0
   -4.7632   -2.1023   -1.2481 H   0  0  0  0  0  0  0  0  0  0  0  0
   -4.1081   -0.5780   -1.8561 H   0  0  0  0  0  0  0  0  0  0  0  0
   -6.7523   -0.9235    2.2392 H   0  0  0  0  0  0  0  0  0  0  0  0
   -6.0800    0.5347    1.4993 H   0  0  0  0  0  0  0  0  0  0  0  0
   -5.9886    0.7002   -0.9774 H   0  0  0  0  0  0  0  0  0  0  0  0
   -6.5852   -0.6479   -1.9495 H   0  0  0  0  0  0  0  0  0  0  0  0
    1.2273   -1.4353    0.4624 H   0  0  0  0  0  0  0  0  0  0  0  0
   -2.7050   -3.0561    0.6879 H   0  0  0  0  0  0  0  0  0  0  0  0
    1.6718    1.4607    2.2283 H   0  0  0  0  0  0  0  0  0  0  0  0
    1.2777    2.7359    3.3800 H   0  0  0  0  0  0  0  0  0  0  0  0
    2.0428    3.1541    1.8417 H   0  0  0  0  0  0  0  0  0  0  0  0
   -0.2666   -3.3447    0.7719 H   0  0  0  0  0  0  0  0  0  0  0  0
   -8.1936    0.7782    0.1883 H   0  0  0  0  0  0  0  0  0  0  0  0
   -8.7290   -0.5935   -0.8065 H   0  0  0  0  0  0  0  0  0  0  0  0
   -8.7991   -0.7110    0.9454 H   0  0  0  0  0  0  0  0  0  0  0  0
    3.5833    1.7788    0.0327 H   0  0  0  0  0  0  0  0  0  0  0  0
    2.2902   -1.7389   -2.0929 H   0  0  0  0  0  0  0  0  0  0  0  0
    4.2662   -2.9446   -1.3367 H   0  0  0  0  0  0  0  0  0  0  0  0
    5.7085    1.7231    1.3119 H   0  0  0  0  0  0  0  0  0  0  0  0
    6.4052   -3.0001   -0.0485 H   0  0  0  0  0  0  0  0  0  0  0  0
    7.7023    0.4933    2.0666 H   0  0  0  0  0  0  0  0  0  0  0  0
    8.0501   -1.8645    1.3877 H   0  0  0  0  0  0  0  0  0  0  0  0
  1  3  2  0  0  0  0
  1  4  2  0  0  0  0
  1  5  1  0  0  0  0
  1 21  1  0  0  0  0
  2 14  2  0  0  0  0
  5  8  1  0  0  0  0
  5 11  1  0  0  0  0
  6 12  1  0  0  0  0
  6 15  1  0  0  0  0
  6 16  1  0  0  0  0
  7 17  1  0  0  0  0
  7 18  1  0  0  0  0
  7 24  1  0  0  0  0
  8  9  1  0  0  0  0
  8 13  1  0  0  0  0
  8 34  1  0  0  0  0
  9 14  1  0  0  0  0
  9 35  1  0  0  0  0
  9 36  1  0  0  0  0
 10 11  1  0  0  0  0
 10 12  2  0  0  0  0
 10 14  1  0  0  0  0
 11 19  2  0  0  0  0
 12 20  1  0  0  0  0
 13 22  1  0  0  0  0
 13 37  1  0  0  0  0
 13 38  1  0  0  0  0
 15 17  1  0  0  0  0
 15 41  1  0  0  0  0
 15 42  1  0  0  0  0
 16 18  1  0  0  0  0
 16 39  1  0  0  0  0
 16 40  1  0  0  0  0
 17 45  1  0  0  0  0
 17 46  1  0  0  0  0
 18 43  1  0  0  0  0
 18 44  1  0  0  0  0
 19 23  1  0  0  0  0
 19 47  1  0  0  0  0
 20 23  2  0  0  0  0
 20 48  1  0  0  0  0
 21 25  2  0  0  0  0
 21 26  1  0  0  0  0
 22 49  1  0  0  0  0
 22 50  1  0  0  0  0
 22 51  1  0  0  0  0
 23 52  1  0  0  0  0
 24 53  1  0  0  0  0
 24 54  1  0  0  0  0
 24 55  1  0  0  0  0
 25 27  1  0  0  0  0
 25 56  1  0  0  0  0
 26 29  2  0  0  0  0
 26 57  1  0  0  0  0
 27 28  1  0  0  0  0
 27 30  2  0  0  0  0
 28 29  1  0  0  0  0
 28 31  2  0  0  0  0
 29 58  1  0  0  0  0
 30 32  1  0  0  0  0
 30 59  1  0  0  0  0
 31 33  1  0  0  0  0
 31 60  1  0  0  0  0
 32 33  2  0  0  0  0
 32 61  1  0  0  0  0
 33 62  1  0  0  0  0
M  END
> <PUBCHEM_COMPOUND_CID>
51003586

> <PUBCHEM_CONFORMER_RMSD>
0.8

> <PUBCHEM_CONFORMER_DIVERSEORDER>
1
54
59
31
22
15
44
39
6
8
26
37
29
55
58
40
23
57
32
43
42
4
38
28
41
45
20
56
34
49
46
50
25
30
47
19
11
35
21
33
52
18
27
10
48
13
14
53
3
17
16
51
12
7
5
36
9
24
2

> <PUBCHEM_MMFF94_PARTIAL_CHARGES>
39
1 1.45
10 0.09
11 0.2
12 0.1
14 0.42
15 0.37
16 0.37
17 0.27
18 0.27
19 -0.15
2 -0.57
20 -0.15
21 -0.01
23 -0.15
24 0.27
25 -0.15
26 -0.15
29 -0.15
3 -0.65
30 -0.15
31 -0.15
32 -0.15
33 -0.15
4 -0.65
47 0.15
48 0.15
5 -0.69
52 0.15
56 0.15
57 0.15
58 0.15
59 0.15
6 -0.84
60 0.15
61 0.15
62 0.15
7 -0.81
8 0.36
9 0.06

> <PUBCHEM_EFFECTIVE_ROTOR_COUNT>
5.8

> <PUBCHEM_PHARMACOPHORE_FEATURES>
11
1 2 acceptor
1 22 hydrophobe
1 3 acceptor
1 4 acceptor
1 6 cation
1 7 cation
6 10 11 12 19 20 23 rings
6 21 25 26 27 28 29 rings
6 27 28 30 31 32 33 rings
6 5 8 9 10 11 14 rings
6 6 7 15 16 17 18 rings

> <PUBCHEM_HEAVY_ATOM_COUNT>
33

> <PUBCHEM_ATOM_DEF_STEREO_COUNT>
0

> <PUBCHEM_ATOM_UDEF_STEREO_COUNT>
1

> <PUBCHEM_BOND_DEF_STEREO_COUNT>
0

> <PUBCHEM_BOND_UDEF_STEREO_COUNT>
0

> <PUBCHEM_ISOTOPIC_ATOM_COUNT>
0

> <PUBCHEM_COMPONENT_COUNT>
1

> <PUBCHEM_CACTVS_TAUTO_COUNT>
2

> <PUBCHEM_CONFORMER_ID>
030A40C200000001

> <PUBCHEM_MMFF94_ENERGY>
113.06

> <PUBCHEM_FEATURE_SELFOVERLAP>
55.892

> <PUBCHEM_SHAPE_FINGERPRINT>
10 15 18272356595966772498
10930396 42 18265590209487748968
11456790 92 18335998514888855241
11646440 116 18410864264848328123
11828532 37 18263930011175546259
12035758 1 18202004360430175275
12107698 1 17632573860042778849
12166972 35 17312827091018672806
12516196 113 18131632287610716890
13402501 40 18272083899106662058
13811026 1 18342451509197006765
14294032 229 17460588122805060029
15131766 46 15696568161732434322
15183329 4 16008747991926596311
15188451 53 18186799154590884090
15484559 13 15243433348678879583
16728300 4 18195233426631142134
17980427 23 15625932183645711509
18393751 57 16702291365770119982
19841028 212 16298655085326089322
20642791 105 18263083227907571709
21781051 124 17459205108927997339
21792934 111 18410853257358942177
21859007 373 17531790407810969957
22223350 30 18120097444552971011
23559900 14 18263359359754652709
24893992 56 17822296817026413811
27425 322 11095585815607355024
3004659 81 17967824863962461414
3178227 256 18336842965425429187
3380486 77 18263386795979080284
3383291 50 18187367640367585635
3729539 64 12540966366615622952
392239 28 18202285771430691496
4112364 45 14333122031140262275
4340502 62 14979964657230839111
463206 1 18271245027031972799
5104073 3 18058451993922938946
57035037 87 15913050881449905761
57527452 28 17676203555443994298
6004065 56 17917708054347650159
6081469 158 18260546698249007126

> <PUBCHEM_SHAPE_MULTIPOLES>
650.42
17.8
2.72
1.7
5.39
1.31
0.22
-9.16
-4.9
-0.65
-0.52
-0.72
0.6
0.61

> <PUBCHEM_SHAPE_SELFOVERLAP>
1407.982

> <PUBCHEM_SHAPE_VOLUME>
357

> <PUBCHEM_COORDINATE_TYPE>
2
5
10

$$$$
