46866711
  -OEChem-03232009353D

 59 62  0     1  0  0  0  0  0999 V2000
    2.9026   -1.2843   -0.0323 S   0  0  0  0  0  0  0  0  0  0  0  0
    3.1252   -2.1928   -1.1425 O   0  0  0  0  0  0  0  0  0  0  0  0
    3.9420   -1.1165    0.9671 O   0  0  0  0  0  0  0  0  0  0  0  0
   -3.1447   -0.2406   -0.2545 N   0  0  0  0  0  0  0  0  0  0  0  0
   -5.4368    1.2195    0.6247 N   0  0  0  0  0  0  0  0  0  0  0  0
    1.3957   -1.6664    0.7544 N   0  0  2  0  0  0  0  0  0  0  0  0
   -2.9777    1.0393    0.4408 C   0  0  0  0  0  0  0  0  0  0  0  0
   -4.4109   -0.9400   -0.0026 C   0  0  0  0  0  0  0  0  0  0  0  0
   -5.5957    0.0099   -0.1921 C   0  0  0  0  0  0  0  0  0  0  0  0
   -4.2093    1.9255    0.2381 C   0  0  0  0  0  0  0  0  0  0  0  0
   -2.0199   -1.0107   -0.5706 C   0  0  0  0  0  0  0  0  0  0  0  0
    1.4684   -2.6415    1.8872 C   0  0  0  0  0  0  0  0  0  0  0  0
    0.2349   -1.7232   -0.0751 C   0  0  0  0  0  0  0  0  0  0  0  0
   -0.8859   -0.9552    0.2399 C   0  0  0  0  0  0  0  0  0  0  0  0
   -6.5997    2.0941    0.4776 C   0  0  0  0  0  0  0  0  0  0  0  0
   -2.0328   -1.8343   -1.6964 C   0  0  0  0  0  0  0  0  0  0  0  0
    2.5900    0.3158   -0.7281 C   0  0  0  0  0  0  0  0  0  0  0  0
    0.2220   -2.5469   -1.2010 C   0  0  0  0  0  0  0  0  0  0  0  0
    0.2988   -2.3918    2.8280 C   0  0  0  0  0  0  0  0  0  0  0  0
    1.4495   -4.0569    1.3284 C   0  0  0  0  0  0  0  0  0  0  0  0
   -0.9119   -2.6022   -2.0116 C   0  0  0  0  0  0  0  0  0  0  0  0
    2.4444    1.4716    0.0564 C   0  0  0  0  0  0  0  0  0  0  0  0
    2.4893    0.3817   -2.1180 C   0  0  0  0  0  0  0  0  0  0  0  0
    2.1929    2.7114   -0.5779 C   0  0  0  0  0  0  0  0  0  0  0  0
    2.5427    1.4239    1.4566 C   0  0  0  0  0  0  0  0  0  0  0  0
    2.2421    1.6009   -2.7419 C   0  0  0  0  0  0  0  0  0  0  0  0
    2.0946    2.7591   -1.9781 C   0  0  0  0  0  0  0  0  0  0  0  0
    2.0471    3.8671    0.2066 C   0  0  0  0  0  0  0  0  0  0  0  0
    2.3952    2.5821    2.2204 C   0  0  0  0  0  0  0  0  0  0  0  0
    2.1479    3.8014    1.5965 C   0  0  0  0  0  0  0  0  0  0  0  0
   -4.5469   -1.7924   -0.6781 H   0  0  0  0  0  0  0  0  0  0  0  0
   -4.4052   -1.3370    1.0208 H   0  0  0  0  0  0  0  0  0  0  0  0
   -2.8240    0.8647    1.5135 H   0  0  0  0  0  0  0  0  0  0  0  0
   -2.1038    1.5797    0.0555 H   0  0  0  0  0  0  0  0  0  0  0  0
   -6.5103   -0.5210    0.0986 H   0  0  0  0  0  0  0  0  0  0  0  0
   -5.6919    0.2692   -1.2552 H   0  0  0  0  0  0  0  0  0  0  0  0
   -4.2611    2.2467   -0.8111 H   0  0  0  0  0  0  0  0  0  0  0  0
   -4.0864    2.8278    0.8495 H   0  0  0  0  0  0  0  0  0  0  0  0
    2.3936   -2.4766    2.4496 H   0  0  0  0  0  0  0  0  0  0  0  0
   -0.8544   -0.3194    1.1206 H   0  0  0  0  0  0  0  0  0  0  0  0
   -6.4974    2.9795    1.1150 H   0  0  0  0  0  0  0  0  0  0  0  0
   -6.7405    2.4281   -0.5568 H   0  0  0  0  0  0  0  0  0  0  0  0
   -7.5111    1.5789    0.8007 H   0  0  0  0  0  0  0  0  0  0  0  0
   -2.9018   -1.8825   -2.3474 H   0  0  0  0  0  0  0  0  0  0  0  0
    1.0481   -3.1984   -1.4604 H   0  0  0  0  0  0  0  0  0  0  0  0
    0.2495   -1.3404    3.1316 H   0  0  0  0  0  0  0  0  0  0  0  0
   -0.6659   -2.6743    2.3947 H   0  0  0  0  0  0  0  0  0  0  0  0
    1.6311   -4.7738    2.1376 H   0  0  0  0  0  0  0  0  0  0  0  0
    2.2326   -4.2123    0.5798 H   0  0  0  0  0  0  0  0  0  0  0  0
    0.4862   -4.3283    0.8852 H   0  0  0  0  0  0  0  0  0  0  0  0
    0.4198   -2.9902    3.7383 H   0  0  0  0  0  0  0  0  0  0  0  0
   -0.9252   -3.2492   -2.8839 H   0  0  0  0  0  0  0  0  0  0  0  0
    2.5923   -0.4948   -2.7502 H   0  0  0  0  0  0  0  0  0  0  0  0
    2.6926    0.5114    2.0197 H   0  0  0  0  0  0  0  0  0  0  0  0
    2.1622    1.6518   -3.8239 H   0  0  0  0  0  0  0  0  0  0  0  0
    1.9013    3.7011   -2.4869 H   0  0  0  0  0  0  0  0  0  0  0  0
    1.8527    4.8308   -0.2596 H   0  0  0  0  0  0  0  0  0  0  0  0
    2.4639    2.5310    3.3032 H   0  0  0  0  0  0  0  0  0  0  0  0
    2.0308    4.7022    2.1919 H   0  0  0  0  0  0  0  0  0  0  0  0
  1  2  2  0  0  0  0
  1  3  2  0  0  0  0
  1  6  1  0  0  0  0
  1 17  1  0  0  0  0
  4  7  1  0  0  0  0
  4  8  1  0  0  0  0
  4 11  1  0  0  0  0
  5  9  1  0  0  0  0
  5 10  1  0  0  0  0
  5 15  1  0  0  0  0
  6 12  1  0  0  0  0
  6 13  1  0  0  0  0
  7 10  1  0  0  0  0
  7 33  1  0  0  0  0
  7 34  1  0  0  0  0
  8  9  1  0  0  0  0
  8 31  1  0  0  0  0
  8 32  1  0  0  0  0
  9 35  1  0  0  0  0
  9 36  1  0  0  0  0
 10 37  1  0  0  0  0
 10 38  1  0  0  0  0
 11 14  2  0  0  0  0
 11 16  1  0  0  0  0
 12 19  1  0  0  0  0
 12 20  1  0  0  0  0
 12 39  1  0  0  0  0
 13 14  1  0  0  0  0
 13 18  2  0  0  0  0
 14 40  1  0  0  0  0
 15 41  1  0  0  0  0
 15 42  1  0  0  0  0
 15 43  1  0  0  0  0
 16 21  2  0  0  0  0
 16 44  1  0  0  0  0
 17 22  1  0  0  0  0
 17 23  2  0  0  0  0
 18 21  1  0  0  0  0
 18 45  1  0  0  0  0
 19 46  1  0  0  0  0
 19 47  1  0  0  0  0
 19 51  1  0  0  0  0
 20 48  1  0  0  0  0
 20 49  1  0  0  0  0
 20 50  1  0  0  0  0
 21 52  1  0  0  0  0
 22 24  1  0  0  0  0
 22 25  2  0  0  0  0
 23 26  1  0  0  0  0
 23 53  1  0  0  0  0
 24 27  1  0  0  0  0
 24 28  2  0  0  0  0
 25 29  1  0  0  0  0
 25 54  1  0  0  0  0
 26 27  2  0  0  0  0
 26 55  1  0  0  0  0
 27 56  1  0  0  0  0
 28 30  1  0  0  0  0
 28 57  1  0  0  0  0
 29 30  2  0  0  0  0
 29 58  1  0  0  0  0
 30 59  1  0  0  0  0
M  END
> <PUBCHEM_COMPOUND_CID>
46866711

> <PUBCHEM_CONFORMER_RMSD>
1

> <PUBCHEM_CONFORMER_DIVERSEORDER>
1
170
7
173
80
131
187
208
34
160
211
132
46
186
218
119
209
189
120
192
216
68
54
188
175
176
98
116
64
95
215
217
63
179
200
151
65
47
137
168
124
202
220
153
150
28
103
219
109
105
17
191
78
61
38
73
190
90
118
203
194
138
39
97
117
128
74
196
133
197
76
57
88
67
199
59
162
156
147
182
174
134
154
112
155
108
195
82
169
136
166
212
145
110
139
142
158
125
178
30
214
93
161
96
55
69
122
184
85
140
9
130
99
185
123
32
52
36
149
165
106
181
129
92
180
159
56
135
26
22
205
198
101
19
127
152
171
89
29
79
210
163
172
14
114
37
16
204
141
77
13
23
84
72
193
33
201
164
18
206
10
157
102
113
107
81
71
143
62
94
148
43
111
207
35
50
70
75
8
48
86
11
91
213
41
126
121
115
12
87
25
83
44
45
21
49
40
144
100
24
31
146
104
27
51
167
53
5
4
42
177
60
58
15
66
6
183
20
3
2

> <PUBCHEM_MMFF94_PARTIAL_CHARGES>
37
1 1.45
10 0.27
11 0.1
12 0.36
13 0.2
14 -0.15
15 0.27
16 -0.15
17 -0.01
18 -0.15
2 -0.65
21 -0.15
23 -0.15
25 -0.15
26 -0.15
27 -0.15
28 -0.15
29 -0.15
3 -0.65
30 -0.15
4 -0.84
40 0.15
44 0.15
45 0.15
5 -0.81
52 0.15
53 0.15
54 0.15
55 0.15
56 0.15
57 0.15
58 0.15
59 0.15
6 -0.69
7 0.37
8 0.37
9 0.27

> <PUBCHEM_EFFECTIVE_ROTOR_COUNT>
6.2

> <PUBCHEM_PHARMACOPHORE_FEATURES>
9
1 2 acceptor
1 3 acceptor
1 4 cation
1 5 cation
3 12 19 20 hydrophobe
6 11 13 14 16 18 21 rings
6 17 22 23 24 26 27 rings
6 22 24 25 28 29 30 rings
6 4 5 7 8 9 10 rings

> <PUBCHEM_HEAVY_ATOM_COUNT>
30

> <PUBCHEM_ATOM_DEF_STEREO_COUNT>
0

> <PUBCHEM_ATOM_UDEF_STEREO_COUNT>
0

> <PUBCHEM_BOND_DEF_STEREO_COUNT>
0

> <PUBCHEM_BOND_UDEF_STEREO_COUNT>
0

> <PUBCHEM_ISOTOPIC_ATOM_COUNT>
0

> <PUBCHEM_COMPONENT_COUNT>
1

> <PUBCHEM_CACTVS_TAUTO_COUNT>
1

> <PUBCHEM_CONFORMER_ID>
02CB211700000001

> <PUBCHEM_MMFF94_ENERGY>
106.4522

> <PUBCHEM_FEATURE_SELFOVERLAP>
45.719

> <PUBCHEM_SHAPE_FINGERPRINT>
10439779 11 17983290422762914217
10675989 125 18342179990113634257
11421498 54 17681274361021021178
11582403 64 16195909279822010032
11720765 8 17489045776959276900
12156800 1 13606578083200467712
13583140 156 17896025569490057151
13878862 14 18042948901884269965
13965767 371 18339906169537222516
14468879 13 17625830730906283199
14674994 50 13606995571302085628
14955137 171 18340770321479537310
150020 26 18116987780909108397
15082195 135 18059565842705300781
17980427 23 17701511070277665918
18681886 176 18130504133057404239
18981168 100 17684100449691186010
21344244 78 17974553707336039171
21860390 5 18262806146618867399
23419403 2 14360333694557120310
23558518 356 18194109952800449666
23559900 14 18057609751158563799
238 59 18198364985490155080
3380486 145 17471800954879195426
35225 105 17538304107766787754
376196 1 17414982836562281984
474 4 18186521046473050623
508180 173 18057628575498802140
513532 50 17632861923346528964
5252454 2 18337957899653303677
57527306 92 18265055739241284342
57527358 35 17342630569677203442
5895379 119 17274555229875541280
7288768 16 17898846026524609129
9849439 229 18192429903676432349
9981440 41 17621587746163826488

> <PUBCHEM_SHAPE_MULTIPOLES>
594.55
9.22
5.04
2.38
19.69
0.52
0.09
6.78
-0.81
-3.46
-1.62
-2.16
-0.34
-1.14

> <PUBCHEM_SHAPE_SELFOVERLAP>
1265.631

> <PUBCHEM_SHAPE_VOLUME>
332.5

> <PUBCHEM_COORDINATE_TYPE>
2
5
10

$$$$
