11551780
  -OEChem-03232009313D

 38 39  0     1  0  0  0  0  0999 V2000
    5.1857   -1.6422    0.0148 Cl  0  0  0  0  0  0  0  0  0  0  0  0
    5.6536    1.4191   -0.9252 Cl  0  0  0  0  0  0  0  0  0  0  0  0
    0.2062   -1.3128    1.7742 O   0  0  0  0  0  0  0  0  0  0  0  0
   -3.2877    0.1476   -0.2170 N   0  0  0  0  0  0  0  0  0  0  0  0
   -2.1679   -0.6408    0.2754 C   0  0  1  0  0  0  0  0  0  0  0  0
   -4.5201   -0.6340   -0.3159 C   0  0  0  0  0  0  0  0  0  0  0  0
   -3.6165    1.2644    0.6683 C   0  0  0  0  0  0  0  0  0  0  0  0
   -5.5926    0.4362   -0.4563 C   0  0  0  0  0  0  0  0  0  0  0  0
   -4.9974    1.6848    0.1874 C   0  0  0  0  0  0  0  0  0  0  0  0
   -1.8814   -1.8368   -0.6550 C   0  0  0  0  0  0  0  0  0  0  0  0
   -0.9466    0.2905    0.3835 C   0  0  0  0  0  0  0  0  0  0  0  0
   -1.5032   -1.4291   -2.0735 C   0  0  0  0  0  0  0  0  0  0  0  0
    0.2855   -0.3977    0.9580 C   0  0  0  0  0  0  0  0  0  0  0  0
    1.6312    0.0401    0.4907 C   0  0  0  0  0  0  0  0  0  0  0  0
    2.6558   -0.8801    0.4685 C   0  0  0  0  0  0  0  0  0  0  0  0
    1.8013    1.3496    0.0990 C   0  0  0  0  0  0  0  0  0  0  0  0
    3.9155   -0.4695    0.0319 C   0  0  0  0  0  0  0  0  0  0  0  0
    3.0609    1.7600   -0.3375 C   0  0  0  0  0  0  0  0  0  0  0  0
    4.1178    0.8505   -0.3712 C   0  0  0  0  0  0  0  0  0  0  0  0
   -2.3931   -1.0458    1.2721 H   0  0  0  0  0  0  0  0  0  0  0  0
   -4.5403   -1.3000   -1.1839 H   0  0  0  0  0  0  0  0  0  0  0  0
   -4.7051   -1.2256    0.5900 H   0  0  0  0  0  0  0  0  0  0  0  0
   -3.6683    0.9565    1.7206 H   0  0  0  0  0  0  0  0  0  0  0  0
   -2.9297    2.1112    0.5762 H   0  0  0  0  0  0  0  0  0  0  0  0
   -6.5259    0.1353    0.0305 H   0  0  0  0  0  0  0  0  0  0  0  0
   -5.8123    0.6330   -1.5122 H   0  0  0  0  0  0  0  0  0  0  0  0
   -4.9250    2.4861   -0.5575 H   0  0  0  0  0  0  0  0  0  0  0  0
   -5.6165    2.0492    1.0133 H   0  0  0  0  0  0  0  0  0  0  0  0
   -1.0645   -2.4414   -0.2434 H   0  0  0  0  0  0  0  0  0  0  0  0
   -2.7402   -2.5169   -0.6915 H   0  0  0  0  0  0  0  0  0  0  0  0
   -1.1336    1.1142    1.0822 H   0  0  0  0  0  0  0  0  0  0  0  0
   -0.7194    0.7305   -0.5932 H   0  0  0  0  0  0  0  0  0  0  0  0
   -0.5453   -0.9025   -2.1058 H   0  0  0  0  0  0  0  0  0  0  0  0
   -2.2661   -0.7988   -2.5394 H   0  0  0  0  0  0  0  0  0  0  0  0
   -1.3951   -2.3252   -2.6943 H   0  0  0  0  0  0  0  0  0  0  0  0
    2.4938   -1.9092    0.7777 H   0  0  0  0  0  0  0  0  0  0  0  0
    1.0024    2.0829    0.1354 H   0  0  0  0  0  0  0  0  0  0  0  0
    3.2022    2.7935   -0.6439 H   0  0  0  0  0  0  0  0  0  0  0  0
  1 17  1  0  0  0  0
  2 19  1  0  0  0  0
  3 13  2  0  0  0  0
  4  5  1  0  0  0  0
  4  6  1  0  0  0  0
  4  7  1  0  0  0  0
  5 10  1  0  0  0  0
  5 11  1  0  0  0  0
  5 20  1  0  0  0  0
  6  8  1  0  0  0  0
  6 21  1  0  0  0  0
  6 22  1  0  0  0  0
  7  9  1  0  0  0  0
  7 23  1  0  0  0  0
  7 24  1  0  0  0  0
  8  9  1  0  0  0  0
  8 25  1  0  0  0  0
  8 26  1  0  0  0  0
  9 27  1  0  0  0  0
  9 28  1  0  0  0  0
 10 12  1  0  0  0  0
 10 29  1  0  0  0  0
 10 30  1  0  0  0  0
 11 13  1  0  0  0  0
 11 31  1  0  0  0  0
 11 32  1  0  0  0  0
 12 33  1  0  0  0  0
 12 34  1  0  0  0  0
 12 35  1  0  0  0  0
 13 14  1  0  0  0  0
 14 15  2  0  0  0  0
 14 16  1  0  0  0  0
 15 17  1  0  0  0  0
 15 36  1  0  0  0  0
 16 18  2  0  0  0  0
 16 37  1  0  0  0  0
 17 19  2  0  0  0  0
 18 19  1  0  0  0  0
 18 38  1  0  0  0  0
M  END
> <PUBCHEM_COMPOUND_CID>
11551780

> <PUBCHEM_CONFORMER_RMSD>
0.8

> <PUBCHEM_CONFORMER_DIVERSEORDER>
2
50
11
40
65
75
67
79
31
48
76
30
57
44
3
81
82
52
78
27
60
62
71
58
74
25
68
19
16
8
34
72
26
64
28
21
73
22
29
49
63
66
41
7
80
77
35
45
17
9
43
51
39
69
4
70
47
42
32
61
20
46
1
24
6
18
59
12
53
36
38
5
55
15
23
33
37
56
54
10
13
14

> <PUBCHEM_MMFF94_PARTIAL_CHARGES>
18
1 -0.18
11 0.06
13 0.42
14 0.09
15 -0.15
16 -0.15
17 0.18
18 -0.15
19 0.18
2 -0.18
3 -0.57
36 0.15
37 0.15
38 0.15
4 -0.81
5 0.27
6 0.27
7 0.27

> <PUBCHEM_EFFECTIVE_ROTOR_COUNT>
6

> <PUBCHEM_PHARMACOPHORE_FEATURES>
5
1 12 hydrophobe
1 3 acceptor
1 4 cation
5 4 6 7 8 9 rings
6 14 15 16 17 18 19 rings

> <PUBCHEM_HEAVY_ATOM_COUNT>
19

> <PUBCHEM_ATOM_DEF_STEREO_COUNT>
0

> <PUBCHEM_ATOM_UDEF_STEREO_COUNT>
1

> <PUBCHEM_BOND_DEF_STEREO_COUNT>
0

> <PUBCHEM_BOND_UDEF_STEREO_COUNT>
0

> <PUBCHEM_ISOTOPIC_ATOM_COUNT>
0

> <PUBCHEM_COMPONENT_COUNT>
1

> <PUBCHEM_CACTVS_TAUTO_COUNT>
2

> <PUBCHEM_CONFORMER_ID>
00B0442400000002

> <PUBCHEM_MMFF94_ENERGY>
37.5048

> <PUBCHEM_FEATURE_SELFOVERLAP>
25.371

> <PUBCHEM_SHAPE_FINGERPRINT>
10366900 7 16081084879493571649
107951 10 18342744047957277119
11471102 20 18260550022189398384
11796584 16 17275105046383337430
12236239 1 18410292501938376761
12363563 72 14189582965402935906
12592029 89 18201444649061968927
12730499 353 17676213454773685034
12788726 201 17632588110522798896
13533116 47 15051463661044761614
14115302 16 17489585688264425698
15099037 51 18202001006197860159
15183329 4 18343308033002298452
15196674 1 18408324392966923320
15342168 16 17241054326047449205
15375358 24 15052011277696033374
16752209 62 16845580772699080115
17349148 13 15410903963134513506
17834072 33 18410853282980675903
17834072 8 18411985736933752830
17870717 6 16702310069957022997
18186145 218 17748817540708727314
18222031 100 13758356674496215008
19784866 170 14635148980671612307
200 152 18202566176649380248
20279233 1 15482672403010587414
20612939 158 18260552208285521400
20645476 183 18343016722703876495
20645477 56 16298666187531347702
20645477 70 18410014308670393886
20871999 31 18201432648928345991
22079108 93 17603871130590235971
221357 26 18334290942164009989
22224240 67 16008751325338150457
22393880 68 17988362701897747694
22854114 59 16732700545663272105
23402539 116 17703783691997927953
23402655 69 18409731785494562828
23559900 14 16415478303003342322
25 1 18113615703226612594
29717793 49 18131075896752663356
300161 21 18201434809676424432
3004659 81 18343023251449649350
4047638 21 17312823788626567640
4214541 1 18412262839665469489
474 4 17894914078391286276
5104073 3 18334012817414336472
5283173 99 13685752558364844683
5374978 207 11458424634923561790
54446538 1 18409164385986846817
559249 180 18201996595108718022
58051976 100 18129941294582806543
59755656 520 17313100886509754466
633830 44 18040994068361211658
69474 34 14345801569414981863
77779 3 18409167744297597595

> <PUBCHEM_SHAPE_MULTIPOLES>
383.9
12.84
1.91
1.18
0.6
0
0.18
3.52
2.49
-0.53
0.29
0.1
-0.43
-1.28

> <PUBCHEM_SHAPE_SELFOVERLAP>
778.836

> <PUBCHEM_SHAPE_VOLUME>
226.8

> <PUBCHEM_COORDINATE_TYPE>
2
5
10

$$$$
