44451980
  -OEChem-03232009353D

 78 82  0     0  0  0  0  0  0999 V2000
    1.1094   -4.9764    2.9592 F   0  0  0  0  0  0  0  0  0  0  0  0
    4.6901   -0.5301    0.5377 O   0  0  0  0  0  0  0  0  0  0  0  0
   -2.6612   -1.5121   -3.6099 O   0  0  0  0  0  0  0  0  0  0  0  0
   -0.9495   -0.4148    2.6652 O   0  0  0  0  0  0  0  0  0  0  0  0
   -4.2294    4.6923    1.7134 O   0  0  0  0  0  0  0  0  0  0  0  0
    0.9218    0.1729   -2.6820 N   0  0  0  0  0  0  0  0  0  0  0  0
    2.9312    1.1280   -0.8905 N   0  0  0  0  0  0  0  0  0  0  0  0
   -3.1756    0.0633   -1.9795 N   0  0  0  0  0  0  0  0  0  0  0  0
   -2.4695   -0.5437    0.8703 N   0  0  0  0  0  0  0  0  0  0  0  0
   -2.7063   -2.6085   -0.2879 N   0  0  0  0  0  0  0  0  0  0  0  0
    1.9925    1.0524   -3.1667 C   0  0  0  0  0  0  0  0  0  0  0  0
    1.4321   -0.6911   -1.6102 C   0  0  0  0  0  0  0  0  0  0  0  0
    2.5262    1.9416   -2.0409 C   0  0  0  0  0  0  0  0  0  0  0  0
    1.9459    0.1403   -0.4326 C   0  0  0  0  0  0  0  0  0  0  0  0
    0.3840   -0.6326   -3.7778 C   0  0  0  0  0  0  0  0  0  0  0  0
   -0.5665    0.2070   -4.6333 C   0  0  0  0  0  0  0  0  0  0  0  0
    3.8224    1.6532    0.0518 C   0  0  0  0  0  0  0  0  0  0  0  0
   -1.7609    0.7253   -3.8326 C   0  0  0  0  0  0  0  0  0  0  0  0
    4.6904    0.8157    0.7524 C   0  0  0  0  0  0  0  0  0  0  0  0
    3.8386    3.0281    0.2865 C   0  0  0  0  0  0  0  0  0  0  0  0
   -2.5726   -0.3716   -3.1636 C   0  0  0  0  0  0  0  0  0  0  0  0
    5.5747    1.3532    1.6877 C   0  0  0  0  0  0  0  0  0  0  0  0
    4.7229    3.5655    1.2219 C   0  0  0  0  0  0  0  0  0  0  0  0
    5.5909    2.7282    1.9226 C   0  0  0  0  0  0  0  0  0  0  0  0
   -3.9706   -0.7765   -1.1466 C   0  0  0  0  0  0  0  0  0  0  0  0
   -3.0104   -1.3571   -0.1285 C   0  0  0  0  0  0  0  0  0  0  0  0
    5.9083   -1.1126    0.0792 C   0  0  0  0  0  0  0  0  0  0  0  0
   -1.4770   -1.0348    1.7447 C   0  0  0  0  0  0  0  0  0  0  0  0
   -1.1039   -2.4518    1.5506 C   0  0  0  0  0  0  0  0  0  0  0  0
   -2.9225    0.8027    1.0872 C   0  0  0  0  0  0  0  0  0  0  0  0
   -1.7536   -3.1850    0.5577 C   0  0  0  0  0  0  0  0  0  0  0  0
    5.5871   -2.3305   -0.7607 C   0  0  0  0  0  0  0  0  0  0  0  0
   -0.1372   -3.0528    2.3658 C   0  0  0  0  0  0  0  0  0  0  0  0
   -1.4236   -4.5346    0.3866 C   0  0  0  0  0  0  0  0  0  0  0  0
   -2.0186    1.8626    1.0139 C   0  0  0  0  0  0  0  0  0  0  0  0
   -4.2657    1.0500    1.3708 C   0  0  0  0  0  0  0  0  0  0  0  0
    0.1825   -4.3977    2.1844 C   0  0  0  0  0  0  0  0  0  0  0  0
   -0.4610   -5.1389    1.1963 C   0  0  0  0  0  0  0  0  0  0  0  0
   -2.4577    3.1696    1.2245 C   0  0  0  0  0  0  0  0  0  0  0  0
   -4.7049    2.3569    1.5814 C   0  0  0  0  0  0  0  0  0  0  0  0
   -3.8009    3.4168    1.5083 C   0  0  0  0  0  0  0  0  0  0  0  0
   -3.2518    5.7278    1.6233 C   0  0  0  0  0  0  0  0  0  0  0  0
    1.6347    1.7155   -3.9610 H   0  0  0  0  0  0  0  0  0  0  0  0
    2.8196    0.4621   -3.5844 H   0  0  0  0  0  0  0  0  0  0  0  0
    2.2361   -1.3399   -1.9831 H   0  0  0  0  0  0  0  0  0  0  0  0
    0.6307   -1.3417   -1.2392 H   0  0  0  0  0  0  0  0  0  0  0  0
    3.3784    2.5104   -2.4334 H   0  0  0  0  0  0  0  0  0  0  0  0
    1.7489    2.6555   -1.7393 H   0  0  0  0  0  0  0  0  0  0  0  0
    1.1087    0.6710    0.0381 H   0  0  0  0  0  0  0  0  0  0  0  0
    2.3386   -0.5452    0.3240 H   0  0  0  0  0  0  0  0  0  0  0  0
    1.1865   -1.0413   -4.4058 H   0  0  0  0  0  0  0  0  0  0  0  0
   -0.1560   -1.5024   -3.3870 H   0  0  0  0  0  0  0  0  0  0  0  0
   -0.9348   -0.4273   -5.4498 H   0  0  0  0  0  0  0  0  0  0  0  0
   -0.0530    1.0461   -5.1136 H   0  0  0  0  0  0  0  0  0  0  0  0
   -1.4234    1.4518   -3.0843 H   0  0  0  0  0  0  0  0  0  0  0  0
   -2.4408    1.2596   -4.5070 H   0  0  0  0  0  0  0  0  0  0  0  0
    3.1677    3.7101   -0.2277 H   0  0  0  0  0  0  0  0  0  0  0  0
    6.2506    0.7131    2.2480 H   0  0  0  0  0  0  0  0  0  0  0  0
    4.7330    4.6355    1.4080 H   0  0  0  0  0  0  0  0  0  0  0  0
    6.2772    3.1464    2.6529 H   0  0  0  0  0  0  0  0  0  0  0  0
   -3.0553    1.0316   -1.6975 H   0  0  0  0  0  0  0  0  0  0  0  0
   -4.4135   -1.5817   -1.7428 H   0  0  0  0  0  0  0  0  0  0  0  0
   -4.7819   -0.1937   -0.7194 H   0  0  0  0  0  0  0  0  0  0  0  0
    6.5103   -1.4071    0.9457 H   0  0  0  0  0  0  0  0  0  0  0  0
    6.4824   -0.3994   -0.5254 H   0  0  0  0  0  0  0  0  0  0  0  0
    5.0092   -3.0576   -0.1806 H   0  0  0  0  0  0  0  0  0  0  0  0
    4.9724   -2.0514   -1.6230 H   0  0  0  0  0  0  0  0  0  0  0  0
    6.5015   -2.8111   -1.1194 H   0  0  0  0  0  0  0  0  0  0  0  0
    0.3743   -2.4935    3.1439 H   0  0  0  0  0  0  0  0  0  0  0  0
   -1.9142   -5.1240   -0.3844 H   0  0  0  0  0  0  0  0  0  0  0  0
   -0.9715    1.6883    0.7827 H   0  0  0  0  0  0  0  0  0  0  0  0
   -4.9786    0.2352    1.4682 H   0  0  0  0  0  0  0  0  0  0  0  0
   -0.2117   -6.1863    1.0540 H   0  0  0  0  0  0  0  0  0  0  0  0
   -1.7032    3.9452    1.1500 H   0  0  0  0  0  0  0  0  0  0  0  0
   -5.7507    2.5427    1.8098 H   0  0  0  0  0  0  0  0  0  0  0  0
   -3.7661    6.6753    1.8143 H   0  0  0  0  0  0  0  0  0  0  0  0
   -2.8259    5.7926    0.6163 H   0  0  0  0  0  0  0  0  0  0  0  0
   -2.4809    5.6216    2.3941 H   0  0  0  0  0  0  0  0  0  0  0  0
  1 37  1  0  0  0  0
  2 19  1  0  0  0  0
  2 27  1  0  0  0  0
  3 21  2  0  0  0  0
  4 28  2  0  0  0  0
  5 41  1  0  0  0  0
  5 42  1  0  0  0  0
  6 11  1  0  0  0  0
  6 12  1  0  0  0  0
  6 15  1  0  0  0  0
  7 13  1  0  0  0  0
  7 14  1  0  0  0  0
  7 17  1  0  0  0  0
  8 21  1  0  0  0  0
  8 25  1  0  0  0  0
  8 61  1  0  0  0  0
  9 26  1  0  0  0  0
  9 28  1  0  0  0  0
  9 30  1  0  0  0  0
 10 26  2  0  0  0  0
 10 31  1  0  0  0  0
 11 13  1  0  0  0  0
 11 43  1  0  0  0  0
 11 44  1  0  0  0  0
 12 14  1  0  0  0  0
 12 45  1  0  0  0  0
 12 46  1  0  0  0  0
 13 47  1  0  0  0  0
 13 48  1  0  0  0  0
 14 49  1  0  0  0  0
 14 50  1  0  0  0  0
 15 16  1  0  0  0  0
 15 51  1  0  0  0  0
 15 52  1  0  0  0  0
 16 18  1  0  0  0  0
 16 53  1  0  0  0  0
 16 54  1  0  0  0  0
 17 19  1  0  0  0  0
 17 20  2  0  0  0  0
 18 21  1  0  0  0  0
 18 55  1  0  0  0  0
 18 56  1  0  0  0  0
 19 22  2  0  0  0  0
 20 23  1  0  0  0  0
 20 57  1  0  0  0  0
 22 24  1  0  0  0  0
 22 58  1  0  0  0  0
 23 24  2  0  0  0  0
 23 59  1  0  0  0  0
 24 60  1  0  0  0  0
 25 26  1  0  0  0  0
 25 62  1  0  0  0  0
 25 63  1  0  0  0  0
 27 32  1  0  0  0  0
 27 64  1  0  0  0  0
 27 65  1  0  0  0  0
 28 29  1  0  0  0  0
 29 31  2  0  0  0  0
 29 33  1  0  0  0  0
 30 35  2  0  0  0  0
 30 36  1  0  0  0  0
 31 34  1  0  0  0  0
 32 66  1  0  0  0  0
 32 67  1  0  0  0  0
 32 68  1  0  0  0  0
 33 37  2  0  0  0  0
 33 69  1  0  0  0  0
 34 38  2  0  0  0  0
 34 70  1  0  0  0  0
 35 39  1  0  0  0  0
 35 71  1  0  0  0  0
 36 40  2  0  0  0  0
 36 72  1  0  0  0  0
 37 38  1  0  0  0  0
 38 73  1  0  0  0  0
 39 41  2  0  0  0  0
 39 74  1  0  0  0  0
 40 41  1  0  0  0  0
 40 75  1  0  0  0  0
 42 76  1  0  0  0  0
 42 77  1  0  0  0  0
 42 78  1  0  0  0  0
M  END
> <PUBCHEM_COMPOUND_CID>
44451980

> <PUBCHEM_CONFORMER_RMSD>
1.4

> <PUBCHEM_CONFORMER_DIVERSEORDER>
1
195
200
36
103
6
77
164
194
139
233
43
60
154
105
120
202
173
181
116
83
40
224
110
140
163
81
25
178
205
38
190
106
72
221
27
193
29
168
143
119
246
56
131
15
48
88
86
44
185
152
124
150
220
201
37
3
238
187
97
58
117
12
189
171
98
47
156
199
203
31
155
61
125
144
52
76
230
34
176
57
78
50
69
215
73
206
133
184
35
80
222
225
123
165
8
174
28
158
132
89
55
229
26
243
167
179
129
228
85
65
136
137
92
157
239
42
14
33
46
18
226
112
210
207
109
161
79
118
213
104
95
159
4
53
108
153
244
10
5
231
217
135
242
11
100
177
7
235
84
70
32
45
175
90
66
212
74
75
2
121
197
17
149
145
198
54
180
101
49
160
122
138
19
241
219
107
22
204
148
114
191
208
9
146
67
147
211
142
16
236
216
99
20
128
91
23
39
188
21
102
59
186
113
87
192
71
94
209
214
24
127
134
41
240
51
172
166
218
223
30
96
111
63
170
237
130
162
182
196
183
126
227
62
82
151
234
115
232
245
93
141
68
13
169
64

> <PUBCHEM_MMFF94_PARTIAL_CHARGES>
52
1 -0.19
10 -0.63
11 0.27
12 0.27
13 0.37
14 0.37
15 0.27
17 0.1
18 0.06
19 0.08
2 -0.36
20 -0.15
21 0.57
22 -0.15
23 -0.15
24 -0.15
25 0.36
26 0.45
27 0.28
28 0.54
29 0.09
3 -0.57
30 0.12
31 0.18
33 -0.15
34 -0.15
35 -0.15
36 -0.15
37 0.19
38 -0.15
39 -0.15
4 -0.57
40 -0.15
41 0.08
42 0.28
5 -0.36
57 0.15
58 0.15
59 0.15
6 -0.81
60 0.15
61 0.37
69 0.15
7 -0.84
70 0.15
71 0.15
72 0.15
73 0.15
74 0.15
75 0.15
8 -0.73
9 -0.24

> <PUBCHEM_EFFECTIVE_ROTOR_COUNT>
13.2

> <PUBCHEM_PHARMACOPHORE_FEATURES>
12
1 2 acceptor
1 3 acceptor
1 4 acceptor
1 5 acceptor
1 6 cation
1 7 cation
1 8 donor
6 17 19 20 22 23 24 rings
6 29 31 33 34 37 38 rings
6 30 35 36 39 40 41 rings
6 6 7 11 12 13 14 rings
6 9 10 26 28 29 31 rings

> <PUBCHEM_HEAVY_ATOM_COUNT>
42

> <PUBCHEM_ATOM_DEF_STEREO_COUNT>
0

> <PUBCHEM_ATOM_UDEF_STEREO_COUNT>
0

> <PUBCHEM_BOND_DEF_STEREO_COUNT>
0

> <PUBCHEM_BOND_UDEF_STEREO_COUNT>
0

> <PUBCHEM_ISOTOPIC_ATOM_COUNT>
0

> <PUBCHEM_COMPONENT_COUNT>
1

> <PUBCHEM_CACTVS_TAUTO_COUNT>
2

> <PUBCHEM_CONFORMER_ID>
02A6488C00000001

> <PUBCHEM_MMFF94_ENERGY>
150.4335

> <PUBCHEM_FEATURE_SELFOVERLAP>
60.93

> <PUBCHEM_SHAPE_FINGERPRINT>
10258939 38 17775010132913378447
10305334 12 18198342849159859993
11434127 23 18195522830253943136
12128747 34 18343028817821989446
12422481 6 17023188150325458589
14020679 6 18269001877914638310
14468879 13 17703247156093357837
15064986 96 16300953034384137845
15773879 134 18339644430009063897
16067690 210 18129653222552491065
17974551 9 18341057384714693018
19304152 47 17626649850850093944
19315092 285 16961828052658522916
21223535 225 18270675356192386514
22121540 332 14956574342704620115
376196 1 17844544218315407445

> <PUBCHEM_SHAPE_MULTIPOLES>
808.68
10.93
6.91
4.43
15.07
0.86
6.06
-9.1
-4.49
-4.53
-7.71
-1.75
0.94
-1.34

> <PUBCHEM_SHAPE_SELFOVERLAP>
1737.739

> <PUBCHEM_SHAPE_VOLUME>
446.1

> <PUBCHEM_COORDINATE_TYPE>
2
5
10

$$$$
