44452142
  -OEChem-03232009353D

 70 74  0     0  0  0  0  0  0999 V2000
    7.4954   -1.0857    1.2741 F   0  0  0  0  0  0  0  0  0  0  0  0
    5.7167   -2.2921    0.9451 F   0  0  0  0  0  0  0  0  0  0  0  0
    6.8656   -1.5747   -0.7487 F   0  0  0  0  0  0  0  0  0  0  0  0
   -1.8006   -5.8941   -1.4908 F   0  0  0  0  0  0  0  0  0  0  0  0
   -4.0236    0.8126   -2.8981 O   0  0  0  0  0  0  0  0  0  0  0  0
   -0.8128   -1.1521    2.5177 O   0  0  0  0  0  0  0  0  0  0  0  0
   -0.0347    1.4794   -2.4710 N   0  0  0  0  0  0  0  0  0  0  0  0
    2.4739    1.3078   -1.1158 N   0  0  0  0  0  0  0  0  0  0  0  0
   -3.8015    1.5680   -0.7106 N   0  0  0  0  0  0  0  0  0  0  0  0
   -2.6677   -0.3017    1.3405 N   0  0  0  0  0  0  0  0  0  0  0  0
   -3.6167   -1.6088   -0.4064 N   0  0  0  0  0  0  0  0  0  0  0  0
    1.0829    2.3464   -2.8634 C   0  0  0  0  0  0  0  0  0  0  0  0
    0.4765    0.1800   -2.0176 C   0  0  0  0  0  0  0  0  0  0  0  0
    2.0343    2.5839   -1.6880 C   0  0  0  0  0  0  0  0  0  0  0  0
    1.4066    0.3457   -0.8135 C   0  0  0  0  0  0  0  0  0  0  0  0
   -0.9642    1.3039   -3.5864 C   0  0  0  0  0  0  0  0  0  0  0  0
   -1.8533    2.5403   -3.7322 C   0  0  0  0  0  0  0  0  0  0  0  0
    3.6414    1.2578   -0.3460 C   0  0  0  0  0  0  0  0  0  0  0  0
   -2.6975    2.7968   -2.4841 C   0  0  0  0  0  0  0  0  0  0  0  0
    4.4091    0.0936   -0.3191 C   0  0  0  0  0  0  0  0  0  0  0  0
    4.0375    2.3718    0.3941 C   0  0  0  0  0  0  0  0  0  0  0  0
   -3.5806    1.6243   -2.0901 C   0  0  0  0  0  0  0  0  0  0  0  0
    5.5731    0.0434    0.4481 C   0  0  0  0  0  0  0  0  0  0  0  0
    5.2013    2.3215    1.1614 C   0  0  0  0  0  0  0  0  0  0  0  0
    5.9691    1.1574    1.1884 C   0  0  0  0  0  0  0  0  0  0  0  0
   -4.5744    0.5513   -0.0781 C   0  0  0  0  0  0  0  0  0  0  0  0
    6.3933   -1.2016    0.4774 C   0  0  0  0  0  0  0  0  0  0  0  0
   -3.5815   -0.5260    0.3080 C   0  0  0  0  0  0  0  0  0  0  0  0
   -1.6536   -1.2406    1.6258 C   0  0  0  0  0  0  0  0  0  0  0  0
   -1.6691   -2.4643    0.7972 C   0  0  0  0  0  0  0  0  0  0  0  0
   -2.6663   -2.6064   -0.1678 C   0  0  0  0  0  0  0  0  0  0  0  0
   -2.7387    0.8595    2.1844 C   0  0  0  0  0  0  0  0  0  0  0  0
   -0.7174   -3.4718    0.9952 C   0  0  0  0  0  0  0  0  0  0  0  0
   -2.7014   -3.7743   -0.9387 C   0  0  0  0  0  0  0  0  0  0  0  0
   -1.6501    1.7275    2.2681 C   0  0  0  0  0  0  0  0  0  0  0  0
   -3.8954    1.1186    2.9195 C   0  0  0  0  0  0  0  0  0  0  0  0
   -0.7634   -4.6297    0.2200 C   0  0  0  0  0  0  0  0  0  0  0  0
   -1.7555   -4.7819   -0.7457 C   0  0  0  0  0  0  0  0  0  0  0  0
   -1.7181    2.8548    3.0869 C   0  0  0  0  0  0  0  0  0  0  0  0
   -3.9636    2.2459    3.7382 C   0  0  0  0  0  0  0  0  0  0  0  0
   -2.8748    3.1139    3.8219 C   0  0  0  0  0  0  0  0  0  0  0  0
    0.7286    3.3274   -3.1962 H   0  0  0  0  0  0  0  0  0  0  0  0
    1.6428    1.9032   -3.6983 H   0  0  0  0  0  0  0  0  0  0  0  0
    1.0106   -0.3316   -2.8296 H   0  0  0  0  0  0  0  0  0  0  0  0
   -0.3557   -0.4668   -1.7139 H   0  0  0  0  0  0  0  0  0  0  0  0
    1.5265    3.1823   -0.9204 H   0  0  0  0  0  0  0  0  0  0  0  0
    2.8922    3.1600   -2.0566 H   0  0  0  0  0  0  0  0  0  0  0  0
    1.8076   -0.6412   -0.5553 H   0  0  0  0  0  0  0  0  0  0  0  0
    0.8392    0.6994    0.0559 H   0  0  0  0  0  0  0  0  0  0  0  0
   -1.5957    0.4228   -3.4261 H   0  0  0  0  0  0  0  0  0  0  0  0
   -0.4301    1.1169   -4.5272 H   0  0  0  0  0  0  0  0  0  0  0  0
   -1.2731    3.4364   -3.9750 H   0  0  0  0  0  0  0  0  0  0  0  0
   -2.5230    2.3753   -4.5861 H   0  0  0  0  0  0  0  0  0  0  0  0
   -3.3622    3.6492   -2.6690 H   0  0  0  0  0  0  0  0  0  0  0  0
   -2.0502    3.0774   -1.6452 H   0  0  0  0  0  0  0  0  0  0  0  0
    4.1169   -0.7759   -0.9036 H   0  0  0  0  0  0  0  0  0  0  0  0
    3.4568    3.2896    0.4082 H   0  0  0  0  0  0  0  0  0  0  0  0
    5.5080    3.1877    1.7406 H   0  0  0  0  0  0  0  0  0  0  0  0
    6.8715    1.1386    1.7930 H   0  0  0  0  0  0  0  0  0  0  0  0
   -3.4034    2.2941   -0.1226 H   0  0  0  0  0  0  0  0  0  0  0  0
   -5.1189    0.9820    0.7577 H   0  0  0  0  0  0  0  0  0  0  0  0
   -5.3079    0.1468   -0.7840 H   0  0  0  0  0  0  0  0  0  0  0  0
    0.0624   -3.3743    1.7453 H   0  0  0  0  0  0  0  0  0  0  0  0
   -3.4670   -3.9046   -1.6998 H   0  0  0  0  0  0  0  0  0  0  0  0
   -0.7457    1.5475    1.6941 H   0  0  0  0  0  0  0  0  0  0  0  0
   -4.7408    0.4357    2.8963 H   0  0  0  0  0  0  0  0  0  0  0  0
   -0.0270   -5.4136    0.3699 H   0  0  0  0  0  0  0  0  0  0  0  0
   -0.8713    3.5319    3.1501 H   0  0  0  0  0  0  0  0  0  0  0  0
   -4.8611    2.4436    4.3168 H   0  0  0  0  0  0  0  0  0  0  0  0
   -2.9275    3.9909    4.4604 H   0  0  0  0  0  0  0  0  0  0  0  0
  1 27  1  0  0  0  0
  2 27  1  0  0  0  0
  3 27  1  0  0  0  0
  4 38  1  0  0  0  0
  5 22  2  0  0  0  0
  6 29  2  0  0  0  0
  7 12  1  0  0  0  0
  7 13  1  0  0  0  0
  7 16  1  0  0  0  0
  8 14  1  0  0  0  0
  8 15  1  0  0  0  0
  8 18  1  0  0  0  0
  9 22  1  0  0  0  0
  9 26  1  0  0  0  0
  9 60  1  0  0  0  0
 10 28  1  0  0  0  0
 10 29  1  0  0  0  0
 10 32  1  0  0  0  0
 11 28  2  0  0  0  0
 11 31  1  0  0  0  0
 12 14  1  0  0  0  0
 12 42  1  0  0  0  0
 12 43  1  0  0  0  0
 13 15  1  0  0  0  0
 13 44  1  0  0  0  0
 13 45  1  0  0  0  0
 14 46  1  0  0  0  0
 14 47  1  0  0  0  0
 15 48  1  0  0  0  0
 15 49  1  0  0  0  0
 16 17  1  0  0  0  0
 16 50  1  0  0  0  0
 16 51  1  0  0  0  0
 17 19  1  0  0  0  0
 17 52  1  0  0  0  0
 17 53  1  0  0  0  0
 18 20  1  0  0  0  0
 18 21  2  0  0  0  0
 19 22  1  0  0  0  0
 19 54  1  0  0  0  0
 19 55  1  0  0  0  0
 20 23  2  0  0  0  0
 20 56  1  0  0  0  0
 21 24  1  0  0  0  0
 21 57  1  0  0  0  0
 23 25  1  0  0  0  0
 23 27  1  0  0  0  0
 24 25  2  0  0  0  0
 24 58  1  0  0  0  0
 25 59  1  0  0  0  0
 26 28  1  0  0  0  0
 26 61  1  0  0  0  0
 26 62  1  0  0  0  0
 29 30  1  0  0  0  0
 30 31  2  0  0  0  0
 30 33  1  0  0  0  0
 31 34  1  0  0  0  0
 32 35  2  0  0  0  0
 32 36  1  0  0  0  0
 33 37  2  0  0  0  0
 33 63  1  0  0  0  0
 34 38  2  0  0  0  0
 34 64  1  0  0  0  0
 35 39  1  0  0  0  0
 35 65  1  0  0  0  0
 36 40  2  0  0  0  0
 36 66  1  0  0  0  0
 37 38  1  0  0  0  0
 37 67  1  0  0  0  0
 39 41  2  0  0  0  0
 39 68  1  0  0  0  0
 40 41  1  0  0  0  0
 40 69  1  0  0  0  0
 41 70  1  0  0  0  0
M  END
> <PUBCHEM_COMPOUND_CID>
44452142

> <PUBCHEM_CONFORMER_RMSD>
1.4

> <PUBCHEM_CONFORMER_DIVERSEORDER>
1
138
90
124
25
163
102
117
68
196
22
8
99
136
147
107
174
194
10
185
53
116
137
190
119
150
12
140
145
157
11
29
18
188
152
154
104
115
66
82
111
177
176
131
195
39
76
73
191
6
193
59
120
142
184
55
114
65
143
178
126
35
171
134
80
50
93
156
123
175
106
2
17
70
58
103
151
23
89
110
161
64
14
192
155
13
144
198
166
153
32
31
112
5
149
168
122
121
189
108
181
3
71
77
135
109
91
79
9
92
40
165
20
41
160
44
180
96
139
16
84
187
169
182
173
4
132
100
162
60
56
128
57
42
51
167
148
48
69
26
67
186
19
61
183
141
159
54
118
47
158
129
27
36
46
33
45
88
75
63
105
21
97
78
7
98
197
94
113
37
170
81
179
38
101
130
172
49
30
85
164
87
34
95
125
72
74
83
62
15
146
28
86
24
133
52
43
127

> <PUBCHEM_MMFF94_PARTIAL_CHARGES>
53
1 -0.34
10 -0.24
11 -0.63
12 0.27
13 0.27
14 0.37
15 0.37
16 0.27
18 0.1
19 0.06
2 -0.34
20 -0.15
21 -0.15
22 0.57
23 -0.14
24 -0.15
25 -0.15
26 0.36
27 1.16
28 0.45
29 0.54
3 -0.34
30 0.09
31 0.18
32 0.12
33 -0.15
34 -0.15
35 -0.15
36 -0.15
37 -0.15
38 0.19
39 -0.15
4 -0.19
40 -0.15
41 -0.15
5 -0.57
56 0.15
57 0.15
58 0.15
59 0.15
6 -0.57
60 0.37
63 0.15
64 0.15
65 0.15
66 0.15
67 0.15
68 0.15
69 0.15
7 -0.81
70 0.15
8 -0.84
9 -0.73

> <PUBCHEM_EFFECTIVE_ROTOR_COUNT>
11.2

> <PUBCHEM_PHARMACOPHORE_FEATURES>
10
1 5 acceptor
1 6 acceptor
1 7 cation
1 8 cation
1 9 donor
6 10 11 28 29 30 31 rings
6 18 20 21 23 24 25 rings
6 30 31 33 34 37 38 rings
6 32 35 36 39 40 41 rings
6 7 8 12 13 14 15 rings

> <PUBCHEM_HEAVY_ATOM_COUNT>
41

> <PUBCHEM_ATOM_DEF_STEREO_COUNT>
0

> <PUBCHEM_ATOM_UDEF_STEREO_COUNT>
0

> <PUBCHEM_BOND_DEF_STEREO_COUNT>
0

> <PUBCHEM_BOND_UDEF_STEREO_COUNT>
0

> <PUBCHEM_ISOTOPIC_ATOM_COUNT>
0

> <PUBCHEM_COMPONENT_COUNT>
1

> <PUBCHEM_CACTVS_TAUTO_COUNT>
2

> <PUBCHEM_CONFORMER_ID>
02A6492E00000001

> <PUBCHEM_MMFF94_ENERGY>
125.043

> <PUBCHEM_FEATURE_SELFOVERLAP>
50.779

> <PUBCHEM_SHAPE_FINGERPRINT>
10305334 12 17916597414253798233
11524674 6 18115571661097360741
12128747 34 17846506924486735642
12156800 1 16889988050817929197
12422481 6 17677917672259438673
12655364 131 17696172735245920122
14674994 50 18334849528778324596
14950920 106 18201439220439441936
15361156 5 17313101956536853548
19315092 285 17476083900108001245
3383291 50 17458336460170779633
376196 1 16626902122271619889
513202 73 17168435857058001792

> <PUBCHEM_SHAPE_MULTIPOLES>
778.02
12.73
5.77
4.3
29.93
8.98
0.42
0.08
-5.53
-4.69
0.45
-5.41
-5.54
-2.07

> <PUBCHEM_SHAPE_SELFOVERLAP>
1688.691

> <PUBCHEM_SHAPE_VOLUME>
424.1

> <PUBCHEM_COORDINATE_TYPE>
2
5
10

$$$$
