49864289
  -OEChem-03232009353D

 60 64  0     1  0  0  0  0  0999 V2000
    2.8237   -1.8654   -0.5029 S   0  0  0  0  0  0  0  0  0  0  0  0
    3.7083   -2.6406    0.3479 O   0  0  0  0  0  0  0  0  0  0  0  0
    2.8727   -2.0581   -1.9408 O   0  0  0  0  0  0  0  0  0  0  0  0
    2.9845   -0.1695   -0.1376 N   0  0  2  0  0  0  0  0  0  0  0  0
   -1.3541    2.0192   -0.3658 N   0  0  0  0  0  0  0  0  0  0  0  0
   -3.9007    2.7179    0.7231 N   0  0  0  0  0  0  0  0  0  0  0  0
    4.0606    1.4941    1.3206 C   0  0  0  0  0  0  0  0  0  0  0  0
    3.2466    2.7378    1.5274 C   0  0  0  0  0  0  0  0  0  0  0  0
    4.1347    2.2308    2.6257 C   0  0  0  0  0  0  0  0  0  0  0  0
    3.3706    0.1720    1.2673 C   0  0  0  0  0  0  0  0  0  0  0  0
    2.0773    0.7171   -0.7932 C   0  0  0  0  0  0  0  0  0  0  0  0
    0.8068    0.9347   -0.2600 C   0  0  0  0  0  0  0  0  0  0  0  0
   -0.0794    1.8010   -0.9002 C   0  0  0  0  0  0  0  0  0  0  0  0
    1.1657   -2.2245    0.0115 C   0  0  0  0  0  0  0  0  0  0  0  0
   -1.4479    2.5713    0.9915 C   0  0  0  0  0  0  0  0  0  0  0  0
   -2.4723    2.3379   -1.2589 C   0  0  0  0  0  0  0  0  0  0  0  0
    2.4616    1.3660   -1.9668 C   0  0  0  0  0  0  0  0  0  0  0  0
   -2.8167    2.2634    1.6028 C   0  0  0  0  0  0  0  0  0  0  0  0
   -3.8085    2.0385   -0.5747 C   0  0  0  0  0  0  0  0  0  0  0  0
    0.3049    2.4499   -2.0737 C   0  0  0  0  0  0  0  0  0  0  0  0
    1.5755    2.2325   -2.6068 C   0  0  0  0  0  0  0  0  0  0  0  0
    0.1109   -2.0896   -0.8917 C   0  0  0  0  0  0  0  0  0  0  0  0
    0.9171   -2.6409    1.3160 C   0  0  0  0  0  0  0  0  0  0  0  0
   -5.2021    2.4679    1.3418 C   0  0  0  0  0  0  0  0  0  0  0  0
   -1.2082   -2.3702   -0.5000 C   0  0  0  0  0  0  0  0  0  0  0  0
   -0.3872   -2.9240    1.7224 C   0  0  0  0  0  0  0  0  0  0  0  0
   -1.4610   -2.7936    0.8266 C   0  0  0  0  0  0  0  0  0  0  0  0
   -2.2820   -2.2398   -1.3956 C   0  0  0  0  0  0  0  0  0  0  0  0
   -2.7802   -3.0741    1.2184 C   0  0  0  0  0  0  0  0  0  0  0  0
   -3.5863   -2.5228   -0.9893 C   0  0  0  0  0  0  0  0  0  0  0  0
   -3.8350   -2.9391    0.3152 C   0  0  0  0  0  0  0  0  0  0  0  0
    4.9273    1.5471    0.6726 H   0  0  0  0  0  0  0  0  0  0  0  0
    3.5546    3.6330    1.0011 H   0  0  0  0  0  0  0  0  0  0  0  0
    5.0385    2.7879    2.8400 H   0  0  0  0  0  0  0  0  0  0  0  0
    3.6610    1.7945    3.4964 H   0  0  0  0  0  0  0  0  0  0  0  0
    2.1792    2.6626    1.6908 H   0  0  0  0  0  0  0  0  0  0  0  0
    2.4926    0.1366    1.9224 H   0  0  0  0  0  0  0  0  0  0  0  0
    4.0826   -0.5705    1.6420 H   0  0  0  0  0  0  0  0  0  0  0  0
    0.5047    0.4427    0.6607 H   0  0  0  0  0  0  0  0  0  0  0  0
   -2.4341    3.3975   -1.5425 H   0  0  0  0  0  0  0  0  0  0  0  0
   -0.6789    2.1580    1.6542 H   0  0  0  0  0  0  0  0  0  0  0  0
   -2.4194    1.7377   -2.1759 H   0  0  0  0  0  0  0  0  0  0  0  0
   -1.2882    3.6566    0.9503 H   0  0  0  0  0  0  0  0  0  0  0  0
   -3.9223    0.9528   -0.4524 H   0  0  0  0  0  0  0  0  0  0  0  0
   -4.6156    2.3784   -1.2351 H   0  0  0  0  0  0  0  0  0  0  0  0
   -2.8817    2.7729    2.5719 H   0  0  0  0  0  0  0  0  0  0  0  0
   -2.8984    1.1846    1.7940 H   0  0  0  0  0  0  0  0  0  0  0  0
    3.4498    1.2041   -2.3893 H   0  0  0  0  0  0  0  0  0  0  0  0
   -0.3533    3.1419   -2.5912 H   0  0  0  0  0  0  0  0  0  0  0  0
    1.8765    2.7403   -3.5185 H   0  0  0  0  0  0  0  0  0  0  0  0
    0.3040   -1.7645   -1.9121 H   0  0  0  0  0  0  0  0  0  0  0  0
    1.7231   -2.7449    2.0369 H   0  0  0  0  0  0  0  0  0  0  0  0
   -6.0096    2.8399    0.7014 H   0  0  0  0  0  0  0  0  0  0  0  0
   -5.3746    1.4020    1.5304 H   0  0  0  0  0  0  0  0  0  0  0  0
   -5.2843    3.0043    2.2936 H   0  0  0  0  0  0  0  0  0  0  0  0
   -0.5586   -3.2460    2.7474 H   0  0  0  0  0  0  0  0  0  0  0  0
   -2.1115   -1.9139   -2.4196 H   0  0  0  0  0  0  0  0  0  0  0  0
   -2.9980   -3.4005    2.2332 H   0  0  0  0  0  0  0  0  0  0  0  0
   -4.4080   -2.4164   -1.6916 H   0  0  0  0  0  0  0  0  0  0  0  0
   -4.8508   -3.1584    0.6310 H   0  0  0  0  0  0  0  0  0  0  0  0
  1  2  2  0  0  0  0
  1  3  2  0  0  0  0
  1  4  1  0  0  0  0
  1 14  1  0  0  0  0
  4 10  1  0  0  0  0
  4 11  1  0  0  0  0
  5 13  1  0  0  0  0
  5 15  1  0  0  0  0
  5 16  1  0  0  0  0
  6 18  1  0  0  0  0
  6 19  1  0  0  0  0
  6 24  1  0  0  0  0
  7  8  1  0  0  0  0
  7  9  1  0  0  0  0
  7 10  1  0  0  0  0
  7 32  1  0  0  0  0
  8  9  1  0  0  0  0
  8 33  1  0  0  0  0
  8 36  1  0  0  0  0
  9 34  1  0  0  0  0
  9 35  1  0  0  0  0
 10 37  1  0  0  0  0
 10 38  1  0  0  0  0
 11 12  1  0  0  0  0
 11 17  2  0  0  0  0
 12 13  2  0  0  0  0
 12 39  1  0  0  0  0
 13 20  1  0  0  0  0
 14 22  2  0  0  0  0
 14 23  1  0  0  0  0
 15 18  1  0  0  0  0
 15 41  1  0  0  0  0
 15 43  1  0  0  0  0
 16 19  1  0  0  0  0
 16 40  1  0  0  0  0
 16 42  1  0  0  0  0
 17 21  1  0  0  0  0
 17 48  1  0  0  0  0
 18 46  1  0  0  0  0
 18 47  1  0  0  0  0
 19 44  1  0  0  0  0
 19 45  1  0  0  0  0
 20 21  2  0  0  0  0
 20 49  1  0  0  0  0
 21 50  1  0  0  0  0
 22 25  1  0  0  0  0
 22 51  1  0  0  0  0
 23 26  2  0  0  0  0
 23 52  1  0  0  0  0
 24 53  1  0  0  0  0
 24 54  1  0  0  0  0
 24 55  1  0  0  0  0
 25 27  1  0  0  0  0
 25 28  2  0  0  0  0
 26 27  1  0  0  0  0
 26 56  1  0  0  0  0
 27 29  2  0  0  0  0
 28 30  1  0  0  0  0
 28 57  1  0  0  0  0
 29 31  1  0  0  0  0
 29 58  1  0  0  0  0
 30 31  2  0  0  0  0
 30 59  1  0  0  0  0
 31 60  1  0  0  0  0
M  END
> <PUBCHEM_COMPOUND_CID>
49864289

> <PUBCHEM_CONFORMER_RMSD>
1

> <PUBCHEM_CONFORMER_DIVERSEORDER>
1
55
97
99
54
46
66
96
107
64
9
59
79
16
101
33
81
89
58
110
103
3
35
108
30
2
48
74
18
42
44
51
22
83
19
43
53
29
47
14
40
92
23
78
49
69
88
82
36
105
11
86
34
12
98
104
56
45
109
21
63
52
5
95
80
24
93
13
68
32
85
84
25
7
6
87
70
90
73
4
102
26
62
15
100
94
37
61
65
10
17
41
28
31
106
20
38
71
76
72
60
50
75
8
57
27
77
91
39
67

> <PUBCHEM_MMFF94_PARTIAL_CHARGES>
45
1 1.45
10 0.45
11 0.2
12 -0.15
13 0.1
14 -0.01
15 0.37
16 0.37
17 -0.15
18 0.27
19 0.27
2 -0.65
20 -0.15
21 -0.15
22 -0.15
23 -0.15
24 0.27
26 -0.15
28 -0.15
29 -0.15
3 -0.65
30 -0.15
31 -0.15
32 0.1
33 0.1
34 0.1
35 0.1
36 0.1
39 0.15
4 -0.69
48 0.15
49 0.15
5 -0.84
50 0.15
51 0.15
52 0.15
56 0.15
57 0.15
58 0.15
59 0.15
6 -0.81
60 0.15
7 -0.19
8 -0.2
9 -0.2

> <PUBCHEM_EFFECTIVE_ROTOR_COUNT>
7.8

> <PUBCHEM_PHARMACOPHORE_FEATURES>
8
1 2 acceptor
1 3 acceptor
1 5 cation
1 6 cation
6 11 12 13 17 20 21 rings
6 14 22 23 25 26 27 rings
6 25 27 28 29 30 31 rings
6 5 6 15 16 18 19 rings

> <PUBCHEM_HEAVY_ATOM_COUNT>
31

> <PUBCHEM_ATOM_DEF_STEREO_COUNT>
0

> <PUBCHEM_ATOM_UDEF_STEREO_COUNT>
0

> <PUBCHEM_BOND_DEF_STEREO_COUNT>
0

> <PUBCHEM_BOND_UDEF_STEREO_COUNT>
0

> <PUBCHEM_ISOTOPIC_ATOM_COUNT>
0

> <PUBCHEM_COMPONENT_COUNT>
1

> <PUBCHEM_CACTVS_TAUTO_COUNT>
1

> <PUBCHEM_CONFORMER_ID>
02F8DE6100000001

> <PUBCHEM_MMFF94_ENERGY>
99.1247

> <PUBCHEM_FEATURE_SELFOVERLAP>
40.645

> <PUBCHEM_SHAPE_FINGERPRINT>
10064457 181 18125729989039381952
104564 63 18194701451596121031
10816530 23 17560792234685482917
1100329 8 18263092023873415431
11513181 2 18059847394005674366
11578080 2 17916880113264494032
11646440 116 18049998097998965499
12156800 1 18267879452151528456
12422481 6 18409728490917043915
12553582 1 17905061587516099767
12633257 1 18194657325561084080
12788726 201 17977959195458126061
13140716 1 18338231570473703810
140371 6 18116714221535998970
14178342 30 18409442622189126748
14400156 162 16954178489098983536
15338160 23 18123453141625994680
15968369 153 18272099335794234155
17138139 8 18127666358729968173
19734167 9 18410848876175945176
21033648 29 18192415386581879480
244849 19 17632306692029392380
24941158 1 17059794251130684644
3052486 1 18186806863735738998
3380486 77 17460293667866681682
338550 245 18261970582638381037
35225 105 17699607772404959425
463206 1 18338241462537799445
469060 322 17530960276848282335
484985 159 15583366683410856056
5171179 24 18201718475213433390
653340 110 18341611572607757113
81228 2 18333726944533610046

> <PUBCHEM_SHAPE_MULTIPOLES>
615.13
7.93
5.54
2.31
1.25
0.6
-0.18
-2.67
3.42
4.06
0.9
-1.52
-1.24
0.06

> <PUBCHEM_SHAPE_SELFOVERLAP>
1315.011

> <PUBCHEM_SHAPE_VOLUME>
342.4

> <PUBCHEM_COORDINATE_TYPE>
2
5
10

$$$$
