49864292
  -OEChem-03232009353D

 63 67  0     1  0  0  0  0  0999 V2000
    1.4512   -2.8575   -0.5663 S   0  0  0  0  0  0  0  0  0  0  0  0
    2.0894   -3.8407    0.2901 O   0  0  0  0  0  0  0  0  0  0  0  0
    1.3286   -3.1269   -1.9875 O   0  0  0  0  0  0  0  0  0  0  0  0
   -1.1850    2.2024   -0.4885 N   0  0  0  0  0  0  0  0  0  0  0  0
   -3.2704    3.7662    0.6795 N   0  0  0  0  0  0  0  0  0  0  0  0
    2.1902   -1.2973   -0.3320 N   0  0  1  0  0  0  0  0  0  0  0  0
   -0.9914    2.8211    0.8289 C   0  0  0  0  0  0  0  0  0  0  0  0
   -2.1970    2.8319   -1.3424 C   0  0  0  0  0  0  0  0  0  0  0  0
   -3.5032    3.0314   -0.5696 C   0  0  0  0  0  0  0  0  0  0  0  0
   -2.3364    3.0197    1.5315 C   0  0  0  0  0  0  0  0  0  0  0  0
   -0.0968    1.5440   -1.0720 C   0  0  0  0  0  0  0  0  0  0  0  0
   -4.5324    3.9972    1.3817 C   0  0  0  0  0  0  0  0  0  0  0  0
    0.4974    0.4642   -0.4188 C   0  0  0  0  0  0  0  0  0  0  0  0
    1.5819   -0.1920   -1.0007 C   0  0  0  0  0  0  0  0  0  0  0  0
    0.3935    1.9675   -2.3073 C   0  0  0  0  0  0  0  0  0  0  0  0
    2.7691   -1.0350    1.0229 C   0  0  0  0  0  0  0  0  0  0  0  0
    2.0722    0.2315   -2.2359 C   0  0  0  0  0  0  0  0  0  0  0  0
    1.4780    1.3112   -2.8893 C   0  0  0  0  0  0  0  0  0  0  0  0
   -0.1899   -2.6149    0.0583 C   0  0  0  0  0  0  0  0  0  0  0  0
    3.8187    0.0402    0.9952 C   0  0  0  0  0  0  0  0  0  0  0  0
   -1.2038   -2.1801   -0.7958 C   0  0  0  0  0  0  0  0  0  0  0  0
   -0.4662   -2.8586    1.4004 C   0  0  0  0  0  0  0  0  0  0  0  0
   -2.5091   -1.9831   -0.3166 C   0  0  0  0  0  0  0  0  0  0  0  0
   -2.7901   -2.2308    1.0482 C   0  0  0  0  0  0  0  0  0  0  0  0
   -1.7574   -2.6682    1.8935 C   0  0  0  0  0  0  0  0  0  0  0  0
    5.1555   -0.2952    0.7809 C   0  0  0  0  0  0  0  0  0  0  0  0
    3.4559    1.3737    1.1838 C   0  0  0  0  0  0  0  0  0  0  0  0
   -3.5417   -1.5456   -1.1619 C   0  0  0  0  0  0  0  0  0  0  0  0
   -4.0953   -2.0338    1.5274 C   0  0  0  0  0  0  0  0  0  0  0  0
    6.1297    0.7029    0.7554 C   0  0  0  0  0  0  0  0  0  0  0  0
    4.4299    2.3719    1.1582 C   0  0  0  0  0  0  0  0  0  0  0  0
   -4.8328   -1.3551   -0.6687 C   0  0  0  0  0  0  0  0  0  0  0  0
   -5.1092   -1.5987    0.6733 C   0  0  0  0  0  0  0  0  0  0  0  0
    5.7668    2.0365    0.9440 C   0  0  0  0  0  0  0  0  0  0  0  0
   -0.4853    3.7869    0.7020 H   0  0  0  0  0  0  0  0  0  0  0  0
   -0.3562    2.2079    1.4783 H   0  0  0  0  0  0  0  0  0  0  0  0
   -1.8315    3.8021   -1.7025 H   0  0  0  0  0  0  0  0  0  0  0  0
   -2.4128    2.2036   -2.2157 H   0  0  0  0  0  0  0  0  0  0  0  0
   -4.1985    3.5883   -1.2094 H   0  0  0  0  0  0  0  0  0  0  0  0
   -3.9604    2.0538   -0.3643 H   0  0  0  0  0  0  0  0  0  0  0  0
   -2.7560    2.0414    1.8032 H   0  0  0  0  0  0  0  0  0  0  0  0
   -2.1582    3.5692    2.4638 H   0  0  0  0  0  0  0  0  0  0  0  0
    0.1174    0.1479    0.5490 H   0  0  0  0  0  0  0  0  0  0  0  0
   -4.3628    4.5770    2.2958 H   0  0  0  0  0  0  0  0  0  0  0  0
   -5.0334    3.0613    1.6546 H   0  0  0  0  0  0  0  0  0  0  0  0
   -5.2160    4.5855    0.7595 H   0  0  0  0  0  0  0  0  0  0  0  0
   -0.0350    2.8131   -2.8377 H   0  0  0  0  0  0  0  0  0  0  0  0
    1.9758   -0.7751    1.7342 H   0  0  0  0  0  0  0  0  0  0  0  0
    3.2339   -1.9482    1.4121 H   0  0  0  0  0  0  0  0  0  0  0  0
    2.9178   -0.2724   -2.6968 H   0  0  0  0  0  0  0  0  0  0  0  0
    1.8625    1.6428   -3.8494 H   0  0  0  0  0  0  0  0  0  0  0  0
   -0.9891   -1.9895   -1.8456 H   0  0  0  0  0  0  0  0  0  0  0  0
    0.3104   -3.1903    2.0838 H   0  0  0  0  0  0  0  0  0  0  0  0
   -1.9502   -2.8628    2.9465 H   0  0  0  0  0  0  0  0  0  0  0  0
    5.4508   -1.3301    0.6299 H   0  0  0  0  0  0  0  0  0  0  0  0
    2.4236    1.6534    1.3716 H   0  0  0  0  0  0  0  0  0  0  0  0
   -3.3483   -1.3470   -2.2140 H   0  0  0  0  0  0  0  0  0  0  0  0
   -4.3340   -2.2175    2.5729 H   0  0  0  0  0  0  0  0  0  0  0  0
    7.1706    0.4419    0.5882 H   0  0  0  0  0  0  0  0  0  0  0  0
    4.1479    3.4097    1.3092 H   0  0  0  0  0  0  0  0  0  0  0  0
   -5.6220   -1.0150   -1.3329 H   0  0  0  0  0  0  0  0  0  0  0  0
   -6.1143   -1.4494    1.0567 H   0  0  0  0  0  0  0  0  0  0  0  0
    6.5253    2.8136    0.9249 H   0  0  0  0  0  0  0  0  0  0  0  0
  1  2  2  0  0  0  0
  1  3  2  0  0  0  0
  1  6  1  0  0  0  0
  1 19  1  0  0  0  0
  4  7  1  0  0  0  0
  4  8  1  0  0  0  0
  4 11  1  0  0  0  0
  5  9  1  0  0  0  0
  5 10  1  0  0  0  0
  5 12  1  0  0  0  0
  6 14  1  0  0  0  0
  6 16  1  0  0  0  0
  7 10  1  0  0  0  0
  7 35  1  0  0  0  0
  7 36  1  0  0  0  0
  8  9  1  0  0  0  0
  8 37  1  0  0  0  0
  8 38  1  0  0  0  0
  9 39  1  0  0  0  0
  9 40  1  0  0  0  0
 10 41  1  0  0  0  0
 10 42  1  0  0  0  0
 11 13  2  0  0  0  0
 11 15  1  0  0  0  0
 12 44  1  0  0  0  0
 12 45  1  0  0  0  0
 12 46  1  0  0  0  0
 13 14  1  0  0  0  0
 13 43  1  0  0  0  0
 14 17  2  0  0  0  0
 15 18  2  0  0  0  0
 15 47  1  0  0  0  0
 16 20  1  0  0  0  0
 16 48  1  0  0  0  0
 16 49  1  0  0  0  0
 17 18  1  0  0  0  0
 17 50  1  0  0  0  0
 18 51  1  0  0  0  0
 19 21  2  0  0  0  0
 19 22  1  0  0  0  0
 20 26  2  0  0  0  0
 20 27  1  0  0  0  0
 21 23  1  0  0  0  0
 21 52  1  0  0  0  0
 22 25  2  0  0  0  0
 22 53  1  0  0  0  0
 23 24  1  0  0  0  0
 23 28  2  0  0  0  0
 24 25  1  0  0  0  0
 24 29  2  0  0  0  0
 25 54  1  0  0  0  0
 26 30  1  0  0  0  0
 26 55  1  0  0  0  0
 27 31  2  0  0  0  0
 27 56  1  0  0  0  0
 28 32  1  0  0  0  0
 28 57  1  0  0  0  0
 29 33  1  0  0  0  0
 29 58  1  0  0  0  0
 30 34  2  0  0  0  0
 30 59  1  0  0  0  0
 31 34  1  0  0  0  0
 31 60  1  0  0  0  0
 32 33  2  0  0  0  0
 32 61  1  0  0  0  0
 33 62  1  0  0  0  0
 34 63  1  0  0  0  0
M  END
> <PUBCHEM_COMPOUND_CID>
49864292

> <PUBCHEM_CONFORMER_RMSD>
1

> <PUBCHEM_CONFORMER_DIVERSEORDER>
1
152
172
92
62
164
96
123
150
159
63
243
137
139
166
60
147
250
241
37
230
184
237
215
206
101
134
163
72
52
249
165
22
196
171
210
221
246
48
124
217
224
235
56
17
41
208
216
121
91
42
219
30
12
44
170
186
245
149
97
180
19
71
51
168
85
74
211
20
154
55
212
8
119
238
176
115
178
169
129
98
111
146
193
57
116
103
54
128
75
228
209
40
222
251
76
155
143
104
77
7
225
35
38
248
78
79
130
50
218
227
202
24
113
136
236
229
117
239
214
213
198
93
231
27
34
73
160
131
125
220
36
187
201
99
191
242
173
21
61
45
14
100
144
233
43
232
80
183
28
240
58
49
39
195
69
161
122
64
167
234
189
141
179
33
247
133
59
5
188
200
203
10
204
114
16
66
84
46
23
182
162
158
65
205
94
197
226
3
109
207
223
108
11
81
177
90
105
6
190
68
132
127
145
89
110
199
29
252
157
194
67
82
135
53
244
151
70
47
148
102
185
192
32
174
87
142
31
175
9
181
4
120
153
25
107
106
26
126
83
138
112
156
2
95
140
18
13
15
88
86
118

> <PUBCHEM_MMFF94_PARTIAL_CHARGES>
48
1 1.45
10 0.27
11 0.1
12 0.27
13 -0.15
14 0.2
15 -0.15
16 0.5
17 -0.15
18 -0.15
19 -0.01
2 -0.65
20 -0.14
21 -0.15
22 -0.15
25 -0.15
26 -0.15
27 -0.15
28 -0.15
29 -0.15
3 -0.65
30 -0.15
31 -0.15
32 -0.15
33 -0.15
34 -0.15
4 -0.84
43 0.15
47 0.15
5 -0.81
50 0.15
51 0.15
52 0.15
53 0.15
54 0.15
55 0.15
56 0.15
57 0.15
58 0.15
59 0.15
6 -0.69
60 0.15
61 0.15
62 0.15
63 0.15
7 0.37
8 0.37
9 0.27

> <PUBCHEM_EFFECTIVE_ROTOR_COUNT>
7.2

> <PUBCHEM_PHARMACOPHORE_FEATURES>
9
1 2 acceptor
1 3 acceptor
1 4 cation
1 5 cation
6 11 13 14 15 17 18 rings
6 19 21 22 23 24 25 rings
6 20 26 27 30 31 34 rings
6 23 24 28 29 32 33 rings
6 4 5 7 8 9 10 rings

> <PUBCHEM_HEAVY_ATOM_COUNT>
34

> <PUBCHEM_ATOM_DEF_STEREO_COUNT>
0

> <PUBCHEM_ATOM_UDEF_STEREO_COUNT>
0

> <PUBCHEM_BOND_DEF_STEREO_COUNT>
0

> <PUBCHEM_BOND_UDEF_STEREO_COUNT>
0

> <PUBCHEM_ISOTOPIC_ATOM_COUNT>
0

> <PUBCHEM_COMPONENT_COUNT>
1

> <PUBCHEM_CACTVS_TAUTO_COUNT>
1

> <PUBCHEM_CONFORMER_ID>
02F8DE6400000001

> <PUBCHEM_MMFF94_ENERGY>
108.1753

> <PUBCHEM_FEATURE_SELFOVERLAP>
45.721

> <PUBCHEM_SHAPE_FINGERPRINT>
10006869 2 18263339487336704250
10032420 55 17561079250059548330
11456790 92 17970640791241866339
11513181 2 18200868479088681751
11578080 2 17916882217661143369
11646440 116 18263930006806511579
12156800 1 18266204810021805476
12422481 6 18333737909294882153
12522641 33 17826216412512774253
12788726 201 18266193892230886685
12930653 34 18342735196065862188
13140716 1 18048320238648703815
140371 6 18187091692739133282
14178342 30 18335707104587444373
14400156 162 16806704241339734650
14840074 17 18266457792391072518
14955137 171 17974856378103234882
15238133 3 17968662738672133079
15338160 23 18410290354914268984
16114785 44 17772442798884683632
20600515 1 17770237259493434496
20642791 13 18409446964759395255
21033648 29 18052526966237273338
244849 19 17774736251306601550
24941158 1 17129879226513426334
392239 28 18343018899830140217
469060 322 16805589374876664260
5171179 24 18200323095952395030
56638632 10 16029315830504591888
6004065 56 18053089916449137327
653340 110 18411140212576635993
7226269 152 18263074569252768891

> <PUBCHEM_SHAPE_MULTIPOLES>
676.87
10.41
5.51
2.15
6.98
2.03
-1.01
3.16
5.12
-5.43
1.22
0.27
0.54
0.34

> <PUBCHEM_SHAPE_SELFOVERLAP>
1461.905

> <PUBCHEM_SHAPE_VOLUME>
371.4

> <PUBCHEM_COORDINATE_TYPE>
2
5
10

$$$$
