49864722
  -OEChem-03232009353D

 53 56  0     1  0  0  0  0  0999 V2000
    3.6294    0.2038   -0.0214 S   0  0  0  0  0  0  0  0  0  0  0  0
    4.6575    0.7695   -0.8758 O   0  0  0  0  0  0  0  0  0  0  0  0
    3.8998    0.0286    1.3941 O   0  0  0  0  0  0  0  0  0  0  0  0
   -1.7450   -1.7141   -0.0448 N   0  0  0  0  0  0  0  0  0  0  0  0
   -4.4557   -1.1499   -0.7468 N   0  0  0  0  0  0  0  0  0  0  0  0
    3.0582   -1.2983   -0.6946 N   0  0  1  0  0  0  0  0  0  0  0  0
   -2.1919   -1.8644   -1.4354 C   0  0  0  0  0  0  0  0  0  0  0  0
   -2.7983   -1.7923    0.9719 C   0  0  0  0  0  0  0  0  0  0  0  0
   -3.3776   -0.9399   -1.7210 C   0  0  0  0  0  0  0  0  0  0  0  0
   -3.9653   -0.8710    0.6083 C   0  0  0  0  0  0  0  0  0  0  0  0
   -0.4419   -2.1126    0.2736 C   0  0  0  0  0  0  0  0  0  0  0  0
   -5.6041   -0.3009   -1.0618 C   0  0  0  0  0  0  0  0  0  0  0  0
    0.6459   -1.5138   -0.3619 C   0  0  0  0  0  0  0  0  0  0  0  0
    1.9447   -1.9109   -0.0438 C   0  0  0  0  0  0  0  0  0  0  0  0
   -0.2310   -3.1087    1.2272 C   0  0  0  0  0  0  0  0  0  0  0  0
    2.1557   -2.9070    0.9098 C   0  0  0  0  0  0  0  0  0  0  0  0
    1.0678   -3.5060    1.5451 C   0  0  0  0  0  0  0  0  0  0  0  0
    2.2109    1.2590   -0.1508 C   0  0  0  0  0  0  0  0  0  0  0  0
    3.1277   -1.4257   -2.1840 C   0  0  0  0  0  0  0  0  0  0  0  0
    1.2900    1.3206    0.8955 C   0  0  0  0  0  0  0  0  0  0  0  0
    0.1612    2.1517    0.8085 C   0  0  0  0  0  0  0  0  0  0  0  0
    2.0168    2.0257   -1.2961 C   0  0  0  0  0  0  0  0  0  0  0  0
   -0.0363    2.9313   -0.3561 C   0  0  0  0  0  0  0  0  0  0  0  0
    0.9009    2.8568   -1.3995 C   0  0  0  0  0  0  0  0  0  0  0  0
   -0.7760    2.2260    1.8517 C   0  0  0  0  0  0  0  0  0  0  0  0
   -1.1652    3.7621   -0.4432 C   0  0  0  0  0  0  0  0  0  0  0  0
   -1.8919    3.0569    1.7482 C   0  0  0  0  0  0  0  0  0  0  0  0
   -2.0862    3.8236    0.6031 C   0  0  0  0  0  0  0  0  0  0  0  0
   -2.4150   -1.4824    1.9522 H   0  0  0  0  0  0  0  0  0  0  0  0
   -3.1591   -2.8253    1.0581 H   0  0  0  0  0  0  0  0  0  0  0  0
   -2.4777   -2.9098   -1.6105 H   0  0  0  0  0  0  0  0  0  0  0  0
   -1.3948   -1.6250   -2.1485 H   0  0  0  0  0  0  0  0  0  0  0  0
   -4.7680   -1.0298    1.3386 H   0  0  0  0  0  0  0  0  0  0  0  0
   -3.6464    0.1766    0.6967 H   0  0  0  0  0  0  0  0  0  0  0  0
   -3.0393    0.1052   -1.7065 H   0  0  0  0  0  0  0  0  0  0  0  0
   -3.7411   -1.1517   -2.7339 H   0  0  0  0  0  0  0  0  0  0  0  0
   -5.9923   -0.5344   -2.0594 H   0  0  0  0  0  0  0  0  0  0  0  0
   -5.3534    0.7657   -1.0301 H   0  0  0  0  0  0  0  0  0  0  0  0
   -6.4221   -0.4840   -0.3562 H   0  0  0  0  0  0  0  0  0  0  0  0
    0.4753   -0.7497   -1.1157 H   0  0  0  0  0  0  0  0  0  0  0  0
   -1.0541   -3.6065    1.7316 H   0  0  0  0  0  0  0  0  0  0  0  0
    3.1638   -3.2240    1.1641 H   0  0  0  0  0  0  0  0  0  0  0  0
    1.2324   -4.2837    2.2851 H   0  0  0  0  0  0  0  0  0  0  0  0
    2.8532   -2.4418   -2.4865 H   0  0  0  0  0  0  0  0  0  0  0  0
    2.4523   -0.7171   -2.6706 H   0  0  0  0  0  0  0  0  0  0  0  0
    4.1523   -1.2513   -2.5246 H   0  0  0  0  0  0  0  0  0  0  0  0
    1.4408    0.7219    1.7917 H   0  0  0  0  0  0  0  0  0  0  0  0
    2.7181    1.9877   -2.1247 H   0  0  0  0  0  0  0  0  0  0  0  0
    0.7682    3.4459   -2.3046 H   0  0  0  0  0  0  0  0  0  0  0  0
   -0.6456    1.6342    2.7553 H   0  0  0  0  0  0  0  0  0  0  0  0
   -1.3374    4.3698   -1.3291 H   0  0  0  0  0  0  0  0  0  0  0  0
   -2.6100    3.1040    2.5617 H   0  0  0  0  0  0  0  0  0  0  0  0
   -2.9556    4.4696    0.5230 H   0  0  0  0  0  0  0  0  0  0  0  0
  1  2  2  0  0  0  0
  1  3  2  0  0  0  0
  1  6  1  0  0  0  0
  1 18  1  0  0  0  0
  4  7  1  0  0  0  0
  4  8  1  0  0  0  0
  4 11  1  0  0  0  0
  5  9  1  0  0  0  0
  5 10  1  0  0  0  0
  5 12  1  0  0  0  0
  6 14  1  0  0  0  0
  6 19  1  0  0  0  0
  7  9  1  0  0  0  0
  7 31  1  0  0  0  0
  7 32  1  0  0  0  0
  8 10  1  0  0  0  0
  8 29  1  0  0  0  0
  8 30  1  0  0  0  0
  9 35  1  0  0  0  0
  9 36  1  0  0  0  0
 10 33  1  0  0  0  0
 10 34  1  0  0  0  0
 11 13  2  0  0  0  0
 11 15  1  0  0  0  0
 12 37  1  0  0  0  0
 12 38  1  0  0  0  0
 12 39  1  0  0  0  0
 13 14  1  0  0  0  0
 13 40  1  0  0  0  0
 14 16  2  0  0  0  0
 15 17  2  0  0  0  0
 15 41  1  0  0  0  0
 16 17  1  0  0  0  0
 16 42  1  0  0  0  0
 17 43  1  0  0  0  0
 18 20  2  0  0  0  0
 18 22  1  0  0  0  0
 19 44  1  0  0  0  0
 19 45  1  0  0  0  0
 19 46  1  0  0  0  0
 20 21  1  0  0  0  0
 20 47  1  0  0  0  0
 21 23  1  0  0  0  0
 21 25  2  0  0  0  0
 22 24  2  0  0  0  0
 22 48  1  0  0  0  0
 23 24  1  0  0  0  0
 23 26  2  0  0  0  0
 24 49  1  0  0  0  0
 25 27  1  0  0  0  0
 25 50  1  0  0  0  0
 26 28  1  0  0  0  0
 26 51  1  0  0  0  0
 27 28  2  0  0  0  0
 27 52  1  0  0  0  0
 28 53  1  0  0  0  0
M  END
> <PUBCHEM_COMPOUND_CID>
49864722

> <PUBCHEM_CONFORMER_RMSD>
0.8

> <PUBCHEM_CONFORMER_DIVERSEORDER>
1
29
246
162
58
3
151
61
232
214
169
210
30
74
216
76
105
44
99
225
177
149
208
23
111
171
124
180
154
207
170
31
250
41
62
238
193
247
242
173
42
183
178
21
101
153
100
98
211
33
64
128
165
24
213
129
206
84
166
93
120
218
73
38
119
227
156
71
130
117
220
108
185
243
94
138
181
148
85
32
133
110
240
114
53
137
4
176
125
195
203
57
46
235
26
168
245
72
132
54
37
157
222
96
182
248
106
249
205
89
14
59
107
134
144
127
39
70
201
187
161
2
123
150
147
196
18
113
229
104
189
197
34
28
122
164
103
118
167
79
126
228
51
159
92
233
186
35
239
194
191
15
69
7
140
13
145
175
198
174
43
204
184
66
40
136
9
152
97
81
215
241
77
160
244
172
8
209
116
112
155
36
48
102
109
25
68
78
56
82
60
143
63
234
231
22
55
202
179
67
141
88
192
91
83
12
47
52
135
87
223
131
146
11
226
217
221
20
121
212
190
16
80
19
199
188
5
75
27
237
163
10
230
50
200
139
219
224
6
45
236
49
95
17
65
158
90
86
115
142

> <PUBCHEM_MMFF94_PARTIAL_CHARGES>
37
1 1.45
10 0.27
11 0.1
12 0.27
13 -0.15
14 0.2
15 -0.15
16 -0.15
17 -0.15
18 -0.01
19 0.36
2 -0.65
20 -0.15
22 -0.15
24 -0.15
25 -0.15
26 -0.15
27 -0.15
28 -0.15
3 -0.65
4 -0.84
40 0.15
41 0.15
42 0.15
43 0.15
47 0.15
48 0.15
49 0.15
5 -0.81
50 0.15
51 0.15
52 0.15
53 0.15
6 -0.69
7 0.37
8 0.37
9 0.27

> <PUBCHEM_EFFECTIVE_ROTOR_COUNT>
5.2

> <PUBCHEM_PHARMACOPHORE_FEATURES>
8
1 2 acceptor
1 3 acceptor
1 4 cation
1 5 cation
6 11 13 14 15 16 17 rings
6 18 20 21 22 23 24 rings
6 21 23 25 26 27 28 rings
6 4 5 7 8 9 10 rings

> <PUBCHEM_HEAVY_ATOM_COUNT>
28

> <PUBCHEM_ATOM_DEF_STEREO_COUNT>
0

> <PUBCHEM_ATOM_UDEF_STEREO_COUNT>
0

> <PUBCHEM_BOND_DEF_STEREO_COUNT>
0

> <PUBCHEM_BOND_UDEF_STEREO_COUNT>
0

> <PUBCHEM_ISOTOPIC_ATOM_COUNT>
0

> <PUBCHEM_COMPONENT_COUNT>
1

> <PUBCHEM_CACTVS_TAUTO_COUNT>
1

> <PUBCHEM_CONFORMER_ID>
02F8E01200000001

> <PUBCHEM_MMFF94_ENERGY>
90.8428

> <PUBCHEM_FEATURE_SELFOVERLAP>
40.645

> <PUBCHEM_SHAPE_FINGERPRINT>
10165383 225 17107930037055600893
10190206 1 17974603418063308204
104564 63 18342179942556672092
10675989 125 18408318917269262573
10871710 139 18266477441539215713
11513181 2 17987803977791797711
11646440 116 18269558393553661995
12156800 1 16021071129382782201
12422481 6 17838653014045149097
12553582 1 18196951069334622896
12769317 202 18188471576048760583
12788726 201 18411705413214415024
13122387 1 17618225001313895721
13140716 1 18121778593689548418
1361 2 16103587132154359997
140371 6 18265349467917484964
14117953 113 16393239189667197917
151778 21 17684941580450012613
15210252 30 18187644747050981772
17093844 170 18338226171779051120
17357779 13 18343303673446923692
17921350 177 16663980059388594181
20600515 1 18047449387253817656
20905425 154 18270674273159131079
23536364 44 17183665467424305964
238 59 17191219154776387910
24893992 56 18260822731708063647
3027735 51 18410572851311785816
3052486 1 18263087626285619118
3380486 77 18115011000883688698
338550 245 18337686204665408345
35225 105 17624127209627705429
3524813 1 18041831934749773447
463206 1 18198336450297028823
469060 322 17895485721532601501
57527452 28 16342595001049552726
57527573 199 17910377713251827128
6287921 2 16186646465483067833
6438718 38 17769645413337935055
7226269 152 18265607857444979504
7471813 234 18122883383510942539
81228 2 18340501018713950016
9981440 41 16186615219406001401

> <PUBCHEM_SHAPE_MULTIPOLES>
553.39
7.26
5.37
1.8
3.96
2.41
0.14
-2.44
2.57
1.21
-1.45
0.06
-0.07
-1.39

> <PUBCHEM_SHAPE_SELFOVERLAP>
1182.65

> <PUBCHEM_SHAPE_VOLUME>
308.4

> <PUBCHEM_COORDINATE_TYPE>
2
5
10

$$$$
