44451927
  -OEChem-03232009353D

 71 75  0     0  0  0  0  0  0999 V2000
   -0.2154   -5.7353    0.4512 F   0  0  0  0  0  0  0  0  0  0  0  0
    4.3866   -1.6571   -0.3387 O   0  0  0  0  0  0  0  0  0  0  0  0
   -3.0823    1.1462   -3.2631 O   0  0  0  0  0  0  0  0  0  0  0  0
   -0.9107   -1.2134    2.5012 O   0  0  0  0  0  0  0  0  0  0  0  0
    0.8611    1.3168   -2.2841 N   0  0  0  0  0  0  0  0  0  0  0  0
    3.1202    0.8345   -0.6038 N   0  0  0  0  0  0  0  0  0  0  0  0
   -3.0730    1.8624   -1.0514 N   0  0  0  0  0  0  0  0  0  0  0  0
   -2.4674   -0.1380    1.0980 N   0  0  0  0  0  0  0  0  0  0  0  0
   -3.3185   -1.3141   -0.7871 N   0  0  0  0  0  0  0  0  0  0  0  0
    2.1189    2.0410   -2.5037 C   0  0  0  0  0  0  0  0  0  0  0  0
    1.1439   -0.0369   -1.7909 C   0  0  0  0  0  0  0  0  0  0  0  0
    2.9214    2.1566   -1.2054 C   0  0  0  0  0  0  0  0  0  0  0  0
    1.9127    0.0100   -0.4685 C   0  0  0  0  0  0  0  0  0  0  0  0
    0.0794    1.2599   -3.5188 C   0  0  0  0  0  0  0  0  0  0  0  0
   -0.6246    2.5965   -3.7601 C   0  0  0  0  0  0  0  0  0  0  0  0
    4.1560    0.6394    0.3165 C   0  0  0  0  0  0  0  0  0  0  0  0
   -1.5950    2.9512   -2.6337 C   0  0  0  0  0  0  0  0  0  0  0  0
    4.7747   -0.6049    0.4359 C   0  0  0  0  0  0  0  0  0  0  0  0
    4.5685    1.7032    1.1189 C   0  0  0  0  0  0  0  0  0  0  0  0
   -2.6594    1.8950   -2.3866 C   0  0  0  0  0  0  0  0  0  0  0  0
    5.8060   -0.7855    1.3576 C   0  0  0  0  0  0  0  0  0  0  0  0
    5.5998    1.5227    2.0406 C   0  0  0  0  0  0  0  0  0  0  0  0
    6.2186    0.2784    2.1600 C   0  0  0  0  0  0  0  0  0  0  0  0
   -4.0431    0.9466   -0.5501 C   0  0  0  0  0  0  0  0  0  0  0  0
   -3.2508   -0.2457   -0.0537 C   0  0  0  0  0  0  0  0  0  0  0  0
    5.0510   -1.8194   -1.5900 C   0  0  0  0  0  0  0  0  0  0  0  0
   -1.6239   -1.1950    1.5006 C   0  0  0  0  0  0  0  0  0  0  0  0
   -1.6734   -2.4053    0.6536 C   0  0  0  0  0  0  0  0  0  0  0  0
   -2.5382   -2.4215   -0.4406 C   0  0  0  0  0  0  0  0  0  0  0  0
   -2.5136    1.0202    1.9474 C   0  0  0  0  0  0  0  0  0  0  0  0
   -0.8878   -3.5229    0.9602 C   0  0  0  0  0  0  0  0  0  0  0  0
   -2.6093   -3.5746   -1.2311 C   0  0  0  0  0  0  0  0  0  0  0  0
   -1.3505    1.7483    2.1978 C   0  0  0  0  0  0  0  0  0  0  0  0
   -3.7214    1.4162    2.5218 C   0  0  0  0  0  0  0  0  0  0  0  0
   -0.9677   -4.6648    0.1643 C   0  0  0  0  0  0  0  0  0  0  0  0
   -1.8287   -4.6916   -0.9302 C   0  0  0  0  0  0  0  0  0  0  0  0
   -1.3952    2.8723    3.0226 C   0  0  0  0  0  0  0  0  0  0  0  0
   -3.7662    2.5402    3.3465 C   0  0  0  0  0  0  0  0  0  0  0  0
   -2.6031    3.2683    3.5970 C   0  0  0  0  0  0  0  0  0  0  0  0
    1.9355    3.0589   -2.8626 H   0  0  0  0  0  0  0  0  0  0  0  0
    2.7305    1.5343   -3.2630 H   0  0  0  0  0  0  0  0  0  0  0  0
    1.7184   -0.6088   -2.5320 H   0  0  0  0  0  0  0  0  0  0  0  0
    0.2049   -0.5762   -1.6158 H   0  0  0  0  0  0  0  0  0  0  0  0
    2.3885    2.8110   -0.5034 H   0  0  0  0  0  0  0  0  0  0  0  0
    3.8852    2.6239   -1.4432 H   0  0  0  0  0  0  0  0  0  0  0  0
    1.2765    0.4443    0.3130 H   0  0  0  0  0  0  0  0  0  0  0  0
    2.1211   -1.0177   -0.1574 H   0  0  0  0  0  0  0  0  0  0  0  0
   -0.6702    0.4626   -3.4633 H   0  0  0  0  0  0  0  0  0  0  0  0
    0.7112    1.0113   -4.3817 H   0  0  0  0  0  0  0  0  0  0  0  0
    0.0879    3.4151   -3.9041 H   0  0  0  0  0  0  0  0  0  0  0  0
   -1.1856    2.5173   -4.7002 H   0  0  0  0  0  0  0  0  0  0  0  0
   -1.0398    3.1479   -1.7092 H   0  0  0  0  0  0  0  0  0  0  0  0
   -2.1195    3.8794   -2.8905 H   0  0  0  0  0  0  0  0  0  0  0  0
    4.1007    2.6821    1.0661 H   0  0  0  0  0  0  0  0  0  0  0  0
    6.2922   -1.7522    1.4569 H   0  0  0  0  0  0  0  0  0  0  0  0
    5.9188    2.3498    2.6683 H   0  0  0  0  0  0  0  0  0  0  0  0
   -2.6742    2.5323   -0.4004 H   0  0  0  0  0  0  0  0  0  0  0  0
    7.0209    0.1375    2.8783 H   0  0  0  0  0  0  0  0  0  0  0  0
   -4.7160    0.6372   -1.3571 H   0  0  0  0  0  0  0  0  0  0  0  0
   -4.6412    1.4387    0.2118 H   0  0  0  0  0  0  0  0  0  0  0  0
    4.6207   -2.6882   -2.0955 H   0  0  0  0  0  0  0  0  0  0  0  0
    6.1199   -1.9977   -1.4360 H   0  0  0  0  0  0  0  0  0  0  0  0
    4.9043   -0.9390   -2.2238 H   0  0  0  0  0  0  0  0  0  0  0  0
   -0.2121   -3.5239    1.8107 H   0  0  0  0  0  0  0  0  0  0  0  0
   -3.2731   -3.6076   -2.0918 H   0  0  0  0  0  0  0  0  0  0  0  0
   -0.4034    1.4610    1.7500 H   0  0  0  0  0  0  0  0  0  0  0  0
   -4.6314    0.8416    2.3689 H   0  0  0  0  0  0  0  0  0  0  0  0
   -1.8907   -5.5804   -1.5510 H   0  0  0  0  0  0  0  0  0  0  0  0
   -0.4899    3.4406    3.2155 H   0  0  0  0  0  0  0  0  0  0  0  0
   -4.7051    2.8438    3.8004 H   0  0  0  0  0  0  0  0  0  0  0  0
   -2.6376    4.1427    4.2402 H   0  0  0  0  0  0  0  0  0  0  0  0
  1 35  1  0  0  0  0
  2 18  1  0  0  0  0
  2 26  1  0  0  0  0
  3 20  2  0  0  0  0
  4 27  2  0  0  0  0
  5 10  1  0  0  0  0
  5 11  1  0  0  0  0
  5 14  1  0  0  0  0
  6 12  1  0  0  0  0
  6 13  1  0  0  0  0
  6 16  1  0  0  0  0
  7 20  1  0  0  0  0
  7 24  1  0  0  0  0
  7 57  1  0  0  0  0
  8 25  1  0  0  0  0
  8 27  1  0  0  0  0
  8 30  1  0  0  0  0
  9 25  2  0  0  0  0
  9 29  1  0  0  0  0
 10 12  1  0  0  0  0
 10 40  1  0  0  0  0
 10 41  1  0  0  0  0
 11 13  1  0  0  0  0
 11 42  1  0  0  0  0
 11 43  1  0  0  0  0
 12 44  1  0  0  0  0
 12 45  1  0  0  0  0
 13 46  1  0  0  0  0
 13 47  1  0  0  0  0
 14 15  1  0  0  0  0
 14 48  1  0  0  0  0
 14 49  1  0  0  0  0
 15 17  1  0  0  0  0
 15 50  1  0  0  0  0
 15 51  1  0  0  0  0
 16 18  1  0  0  0  0
 16 19  2  0  0  0  0
 17 20  1  0  0  0  0
 17 52  1  0  0  0  0
 17 53  1  0  0  0  0
 18 21  2  0  0  0  0
 19 22  1  0  0  0  0
 19 54  1  0  0  0  0
 21 23  1  0  0  0  0
 21 55  1  0  0  0  0
 22 23  2  0  0  0  0
 22 56  1  0  0  0  0
 23 58  1  0  0  0  0
 24 25  1  0  0  0  0
 24 59  1  0  0  0  0
 24 60  1  0  0  0  0
 26 61  1  0  0  0  0
 26 62  1  0  0  0  0
 26 63  1  0  0  0  0
 27 28  1  0  0  0  0
 28 29  2  0  0  0  0
 28 31  1  0  0  0  0
 29 32  1  0  0  0  0
 30 33  2  0  0  0  0
 30 34  1  0  0  0  0
 31 35  2  0  0  0  0
 31 64  1  0  0  0  0
 32 36  2  0  0  0  0
 32 65  1  0  0  0  0
 33 37  1  0  0  0  0
 33 66  1  0  0  0  0
 34 38  2  0  0  0  0
 34 67  1  0  0  0  0
 35 36  1  0  0  0  0
 36 68  1  0  0  0  0
 37 39  2  0  0  0  0
 37 69  1  0  0  0  0
 38 39  1  0  0  0  0
 38 70  1  0  0  0  0
 39 71  1  0  0  0  0
M  END
> <PUBCHEM_COMPOUND_CID>
44451927

> <PUBCHEM_CONFORMER_RMSD>
1.4

> <PUBCHEM_CONFORMER_DIVERSEORDER>
1
74
103
4
35
15
115
27
12
37
58
16
33
76
34
107
84
40
52
104
17
121
7
79
18
111
101
89
85
112
38
30
90
114
109
45
6
36
41
106
43
98
63
83
14
67
2
62
19
105
86
9
96
66
8
70
71
113
28
44
56
117
119
80
46
61
87
75
25
72
31
120
24
92
77
94
100
10
69
53
5
54
116
65
88
68
3
59
97
42
81
48
32
102
60
13
57
82
93
91
50
95
64
29
73
26
51
23
55
110
108
21
99
49
39
22
11
78
118
47
20

> <PUBCHEM_MMFF94_PARTIAL_CHARGES>
51
1 -0.19
10 0.27
11 0.27
12 0.37
13 0.37
14 0.27
16 0.1
17 0.06
18 0.08
19 -0.15
2 -0.36
20 0.57
21 -0.15
22 -0.15
23 -0.15
24 0.36
25 0.45
26 0.28
27 0.54
28 0.09
29 0.18
3 -0.57
30 0.12
31 -0.15
32 -0.15
33 -0.15
34 -0.15
35 0.19
36 -0.15
37 -0.15
38 -0.15
39 -0.15
4 -0.57
5 -0.81
54 0.15
55 0.15
56 0.15
57 0.37
58 0.15
6 -0.84
64 0.15
65 0.15
66 0.15
67 0.15
68 0.15
69 0.15
7 -0.73
70 0.15
71 0.15
8 -0.24
9 -0.63

> <PUBCHEM_EFFECTIVE_ROTOR_COUNT>
11.2

> <PUBCHEM_PHARMACOPHORE_FEATURES>
11
1 2 acceptor
1 3 acceptor
1 4 acceptor
1 5 cation
1 6 cation
1 7 donor
6 16 18 19 21 22 23 rings
6 28 29 31 32 35 36 rings
6 30 33 34 37 38 39 rings
6 5 6 10 11 12 13 rings
6 8 9 25 27 28 29 rings

> <PUBCHEM_HEAVY_ATOM_COUNT>
39

> <PUBCHEM_ATOM_DEF_STEREO_COUNT>
0

> <PUBCHEM_ATOM_UDEF_STEREO_COUNT>
0

> <PUBCHEM_BOND_DEF_STEREO_COUNT>
0

> <PUBCHEM_BOND_UDEF_STEREO_COUNT>
0

> <PUBCHEM_ISOTOPIC_ATOM_COUNT>
0

> <PUBCHEM_COMPONENT_COUNT>
1

> <PUBCHEM_CACTVS_TAUTO_COUNT>
2

> <PUBCHEM_CONFORMER_ID>
02A6485700000001

> <PUBCHEM_MMFF94_ENERGY>
139.4735

> <PUBCHEM_FEATURE_SELFOVERLAP>
55.854

> <PUBCHEM_SHAPE_FINGERPRINT>
11434127 23 17988641956503207122
12128747 34 17775018851728631094
12156800 1 16744177364024580285
12422481 6 17679041317224048345
12539773 59 17686101492097390345
12655364 131 17766240252092967146
12788726 201 17983044385450242291
14040222 75 15393473036228144624
14674994 50 18334844035520349740
14844126 61 17605248792589868340
15361156 5 17095514077336076060
16067690 210 17417525817888868576
19315092 285 17691123060185225188
27425 322 17702952409515066497
3383291 50 17458614602242448857
376196 1 16627735543310942729
57527306 92 16878765155276423589

> <PUBCHEM_SHAPE_MULTIPOLES>
752.81
10.52
5.66
4.37
19.34
8.23
1.94
-2.27
-5.53
-5.34
-1.62
-2.49
-5.41
-1.17

> <PUBCHEM_SHAPE_SELFOVERLAP>
1627.327

> <PUBCHEM_SHAPE_VOLUME>
411.6

> <PUBCHEM_COORDINATE_TYPE>
2
5
10

$$$$
