86342156
  -OEChem-03232009353D

 61 65  0     0  0  0  0  0  0999 V2000
   -7.8337   -0.2347   -1.0820 S   0  0  0  0  0  0  0  0  0  0  0  0
    7.1253    0.1310    1.6152 O   0  0  0  0  0  0  0  0  0  0  0  0
    5.9765    1.9474   -1.2046 O   0  0  0  0  0  0  0  0  0  0  0  0
   -1.5029   -1.8324   -0.2170 N   0  0  0  0  0  0  0  0  0  0  0  0
    5.5053   -0.4233    0.0516 N   0  0  0  0  0  0  0  0  0  0  0  0
   -4.1772   -0.8319   -0.2978 N   0  0  0  0  0  0  0  0  0  0  0  0
   -6.4120   -1.0829   -1.1234 N   0  0  0  0  0  0  0  0  0  0  0  0
    2.2694   -2.2430    0.0521 C   0  0  0  0  0  0  0  0  0  0  0  0
    2.6857   -1.1983    1.0951 C   0  0  0  0  0  0  0  0  0  0  0  0
    3.3404   -2.3877   -1.0363 C   0  0  0  0  0  0  0  0  0  0  0  0
    5.1397   -1.6945    0.6337 C   0  0  0  0  0  0  0  0  0  0  0  0
    4.7155   -2.6978   -0.4425 C   0  0  0  0  0  0  0  0  0  0  0  0
    4.0542   -1.5171    1.6982 C   0  0  0  0  0  0  0  0  0  0  0  0
    0.9198   -1.8802   -0.5647 C   0  0  0  0  0  0  0  0  0  0  0  0
   -0.2219   -2.1696    0.4027 C   0  0  0  0  0  0  0  0  0  0  0  0
   -1.7605   -0.3908   -0.1152 C   0  0  0  0  0  0  0  0  0  0  0  0
   -2.5948   -2.5809    0.4176 C   0  0  0  0  0  0  0  0  0  0  0  0
   -3.0720   -0.0158   -0.8098 C   0  0  0  0  0  0  0  0  0  0  0  0
   -3.9335   -2.2794   -0.2600 C   0  0  0  0  0  0  0  0  0  0  0  0
    6.4814    0.3908    0.6021 C   0  0  0  0  0  0  0  0  0  0  0  0
   -5.4960   -0.3911   -0.4541 C   0  0  0  0  0  0  0  0  0  0  0  0
   -5.8937    0.8572    0.1249 C   0  0  0  0  0  0  0  0  0  0  0  0
    6.7215    1.6776   -0.1004 C   0  0  0  0  0  0  0  0  0  0  0  0
   -7.2417    1.0898   -0.1569 C   0  0  0  0  0  0  0  0  0  0  0  0
   -5.1893    1.8199    0.8809 C   0  0  0  0  0  0  0  0  0  0  0  0
    7.5943    2.7089    0.1577 C   0  0  0  0  0  0  0  0  0  0  0  0
   -7.9113    2.2416    0.2847 C   0  0  0  0  0  0  0  0  0  0  0  0
   -5.8472    2.9710    1.3262 C   0  0  0  0  0  0  0  0  0  0  0  0
   -7.1905    3.1769    1.0309 C   0  0  0  0  0  0  0  0  0  0  0  0
    7.3711    3.6747   -0.8526 C   0  0  0  0  0  0  0  0  0  0  0  0
    6.3780    3.1644   -1.6562 C   0  0  0  0  0  0  0  0  0  0  0  0
    2.1811   -3.2167    0.5537 H   0  0  0  0  0  0  0  0  0  0  0  0
    1.9573   -1.1506    1.9113 H   0  0  0  0  0  0  0  0  0  0  0  0
    3.3942   -1.4685   -1.6327 H   0  0  0  0  0  0  0  0  0  0  0  0
    3.0631   -3.1927   -1.7278 H   0  0  0  0  0  0  0  0  0  0  0  0
    2.7129   -0.2005    0.6390 H   0  0  0  0  0  0  0  0  0  0  0  0
    6.0351   -2.0919    1.1283 H   0  0  0  0  0  0  0  0  0  0  0  0
    3.9726   -2.4446    2.2795 H   0  0  0  0  0  0  0  0  0  0  0  0
    4.6851   -3.7012    0.0014 H   0  0  0  0  0  0  0  0  0  0  0  0
    4.3318   -0.7262    2.4054 H   0  0  0  0  0  0  0  0  0  0  0  0
    5.4596   -2.7306   -1.2475 H   0  0  0  0  0  0  0  0  0  0  0  0
    0.7627   -2.4759   -1.4741 H   0  0  0  0  0  0  0  0  0  0  0  0
    0.9327   -0.8308   -0.8802 H   0  0  0  0  0  0  0  0  0  0  0  0
   -0.1004   -1.6510    1.3604 H   0  0  0  0  0  0  0  0  0  0  0  0
   -0.1900   -3.2443    0.6271 H   0  0  0  0  0  0  0  0  0  0  0  0
   -0.9611    0.1870   -0.5910 H   0  0  0  0  0  0  0  0  0  0  0  0
   -1.8061   -0.0762    0.9364 H   0  0  0  0  0  0  0  0  0  0  0  0
   -2.6596   -2.3382    1.4870 H   0  0  0  0  0  0  0  0  0  0  0  0
   -2.4121   -3.6594    0.3371 H   0  0  0  0  0  0  0  0  0  0  0  0
    4.9916   -0.0930   -0.7603 H   0  0  0  0  0  0  0  0  0  0  0  0
   -3.2371    1.0592   -0.7056 H   0  0  0  0  0  0  0  0  0  0  0  0
   -2.9757   -0.2011   -1.8884 H   0  0  0  0  0  0  0  0  0  0  0  0
   -3.9352   -2.6784   -1.2826 H   0  0  0  0  0  0  0  0  0  0  0  0
   -4.7269   -2.7908    0.2992 H   0  0  0  0  0  0  0  0  0  0  0  0
   -4.1503    1.6776    1.1633 H   0  0  0  0  0  0  0  0  0  0  0  0
    8.3040    2.7630    0.9709 H   0  0  0  0  0  0  0  0  0  0  0  0
   -8.9597    2.4069    0.0571 H   0  0  0  0  0  0  0  0  0  0  0  0
   -5.3049    3.7058    1.9152 H   0  0  0  0  0  0  0  0  0  0  0  0
   -7.6877    4.0757    1.3860 H   0  0  0  0  0  0  0  0  0  0  0  0
    7.8714    4.6238   -0.9794 H   0  0  0  0  0  0  0  0  0  0  0  0
    5.8731    3.5245   -2.5406 H   0  0  0  0  0  0  0  0  0  0  0  0
  1  7  1  0  0  0  0
  1 24  1  0  0  0  0
  2 20  2  0  0  0  0
  3 23  1  0  0  0  0
  3 31  1  0  0  0  0
  4 15  1  0  0  0  0
  4 16  1  0  0  0  0
  4 17  1  0  0  0  0
  5 11  1  0  0  0  0
  5 20  1  0  0  0  0
  5 50  1  0  0  0  0
  6 18  1  0  0  0  0
  6 19  1  0  0  0  0
  6 21  1  0  0  0  0
  7 21  2  0  0  0  0
  8  9  1  0  0  0  0
  8 10  1  0  0  0  0
  8 14  1  0  0  0  0
  8 32  1  0  0  0  0
  9 13  1  0  0  0  0
  9 33  1  0  0  0  0
  9 36  1  0  0  0  0
 10 12  1  0  0  0  0
 10 34  1  0  0  0  0
 10 35  1  0  0  0  0
 11 12  1  0  0  0  0
 11 13  1  0  0  0  0
 11 37  1  0  0  0  0
 12 39  1  0  0  0  0
 12 41  1  0  0  0  0
 13 38  1  0  0  0  0
 13 40  1  0  0  0  0
 14 15  1  0  0  0  0
 14 42  1  0  0  0  0
 14 43  1  0  0  0  0
 15 44  1  0  0  0  0
 15 45  1  0  0  0  0
 16 18  1  0  0  0  0
 16 46  1  0  0  0  0
 16 47  1  0  0  0  0
 17 19  1  0  0  0  0
 17 48  1  0  0  0  0
 17 49  1  0  0  0  0
 18 51  1  0  0  0  0
 18 52  1  0  0  0  0
 19 53  1  0  0  0  0
 19 54  1  0  0  0  0
 20 23  1  0  0  0  0
 21 22  1  0  0  0  0
 22 24  1  0  0  0  0
 22 25  2  0  0  0  0
 23 26  2  0  0  0  0
 24 27  2  0  0  0  0
 25 28  1  0  0  0  0
 25 55  1  0  0  0  0
 26 30  1  0  0  0  0
 26 56  1  0  0  0  0
 27 29  1  0  0  0  0
 27 57  1  0  0  0  0
 28 29  2  0  0  0  0
 28 58  1  0  0  0  0
 29 59  1  0  0  0  0
 30 31  2  0  0  0  0
 30 60  1  0  0  0  0
 31 61  1  0  0  0  0
M  END
> <PUBCHEM_COMPOUND_CID>
86342156

> <PUBCHEM_CONFORMER_RMSD>
1

> <PUBCHEM_CONFORMER_DIVERSEORDER>
1
180
38
204
110
201
209
182
37
181
178
185
206
161
65
150
63
82
125
54
97
174
129
101
156
66
67
183
40
58
159
93
153
139
184
42
32
112
116
44
138
193
162
124
177
170
128
122
188
165
200
53
99
195
114
207
164
191
169
130
111
190
148
48
85
8
149
135
160
163
79
5
95
68
134
94
151
104
157
64
80
126
23
81
154
187
7
47
98
73
90
192
189
59
74
145
141
205
2
167
109
198
50
155
175
46
158
60
186
89
92
103
86
202
43
147
52
56
152
6
34
78
118
166
57
91
75
20
113
11
194
45
171
142
13
3
49
96
88
35
102
203
9
55
208
172
27
18
131
176
71
196
121
168
77
144
136
105
22
14
26
33
179
146
199
133
4
115
17
87
117
197
106
10
137
83
62
72
39
108
51
69
173
19
76
120
100
36
21
127
30
41
29
28
70
123
140
143
84
31
25
132
15
16
61
24
12
119
107

> <PUBCHEM_MMFF94_PARTIAL_CHARGES>
32
1 0.18
11 0.3
15 0.27
16 0.27
17 0.27
18 0.37
19 0.37
2 -0.57
20 0.71
21 0.37
23 0.05
24 0.04
25 -0.15
26 -0.15
27 -0.15
28 -0.15
29 -0.15
3 -0.28
30 -0.15
31 -0.01
4 -0.81
5 -0.73
50 0.37
55 0.15
56 0.15
57 0.15
58 0.15
59 0.15
6 -0.82
60 0.15
61 0.15
7 -0.51

> <PUBCHEM_EFFECTIVE_ROTOR_COUNT>
9.4

> <PUBCHEM_PHARMACOPHORE_FEATURES>
10
1 2 acceptor
1 3 acceptor
1 4 cation
1 5 donor
3 6 7 21 cation
5 1 7 21 22 24 rings
5 3 23 26 30 31 rings
6 22 24 25 27 28 29 rings
6 4 6 16 17 18 19 rings
6 8 9 10 11 12 13 rings

> <PUBCHEM_HEAVY_ATOM_COUNT>
31

> <PUBCHEM_ATOM_DEF_STEREO_COUNT>
0

> <PUBCHEM_ATOM_UDEF_STEREO_COUNT>
0

> <PUBCHEM_BOND_DEF_STEREO_COUNT>
0

> <PUBCHEM_BOND_UDEF_STEREO_COUNT>
0

> <PUBCHEM_ISOTOPIC_ATOM_COUNT>
0

> <PUBCHEM_COMPONENT_COUNT>
1

> <PUBCHEM_CACTVS_TAUTO_COUNT>
2

> <PUBCHEM_CONFORMER_ID>
05257A0C00000001

> <PUBCHEM_MMFF94_ENERGY>
55.9918

> <PUBCHEM_FEATURE_SELFOVERLAP>
50.805

> <PUBCHEM_SHAPE_FINGERPRINT>
10280341 67 18271232933284977072
10673678 19 18340772645826717910
10883706 163 18260544485708165469
11017883 126 18041006179874594916
11408170 253 18202007581867605697
11973864 196 18261944143701656901
11991303 11 15482087450277287437
12013929 112 18270697402671442030
125118 31 18411418414862081098
12539765 74 18130511846782089655
12895837 130 18343581854827725367
13782708 43 8142082052677457399
13944108 23 18412547622490249784
14251757 52 18410292510596863578
14394314 77 18335142024357170212
14849402 71 18410575111082398305
15082195 135 18060702784577565538
15183329 4 18201721764488449977
15198563 99 14117523100134931371
15276724 80 18260823757044471140
15347591 1 18410857694177086670
15400415 2 17988636342860405143
15840311 113 18187363238436985390
16126227 98 18411139139109112107
16992752 21 18058721555278218559
16994733 274 18411132528621492795
17686467 74 18040718100360658535
18339144 43 18120124798847140748
19053607 189 18342449379341803018
19841028 212 8574716802128137092
2026 5 9367049062086780401
20691028 202 18411695530541782450
20766409 102 18266750263080081897
21298829 104 18409733984439080636
21424621 283 18339360752411164499
21814621 53 15647877224618159020
24771293 8 18334857237933488797
25025965 108 12324540770275243505
2748736 6 18410572903231142726
33532 11 9439403536119818462
3418910 222 18272938237286011225
3711267 37 18341899588609007576
3918712 181 18337387141728827817
394071 54 17821728334352839564
406291 66 9871477504233611548
4073 2 18411138018186704899
4169191 19 18408882949548680773
4173938 188 17530687641769056507
4258327 124 18412830209219580683
4366758 26 18268718208063063817
444735 82 18411139130155161212
44555599 121 18411136922457341234
57303763 176 18409453623172787260
5911458 16 18410857667989772008
6201320 82 18341067297436675384
6289498 60 18113892741159916344
6328613 192 18409448102609120201

> <PUBCHEM_SHAPE_MULTIPOLES>
610.15
29.62
4.48
1.29
0.67
2.73
-0.1
28.37
1.04
-4.41
0.28
-0.81
0.37
-4.54

> <PUBCHEM_SHAPE_SELFOVERLAP>
1294.731

> <PUBCHEM_SHAPE_VOLUME>
342

> <PUBCHEM_COORDINATE_TYPE>
2
5
10

$$$$
