72197668
  -OEChem-03242009203D

 51 54  0     0  0  0  0  0  0999 V2000
   -4.1016   -1.1671    1.0145 O   0  0  0  0  0  0  0  0  0  0  0  0
    5.4699   -1.3785    0.7039 N   0  0  0  0  0  0  0  0  0  0  0  0
    2.2892    1.5821   -0.3980 N   0  0  0  0  0  0  0  0  0  0  0  0
    0.4232    0.1568   -0.9136 N   0  0  0  0  0  0  0  0  0  0  0  0
    0.4295   -2.1085   -0.3007 N   0  0  0  0  0  0  0  0  0  0  0  0
    2.3491   -0.7372    0.2473 C   0  0  0  0  0  0  0  0  0  0  0  0
    3.0265   -1.9079    0.8938 C   0  0  0  0  0  0  0  0  0  0  0  0
    4.2683    0.8150    0.7816 C   0  0  0  0  0  0  0  0  0  0  0  0
    2.9159    0.5315    0.1853 C   0  0  0  0  0  0  0  0  0  0  0  0
    4.3788   -2.2494    0.2641 C   0  0  0  0  0  0  0  0  0  0  0  0
    5.3911   -0.0201    0.1649 C   0  0  0  0  0  0  0  0  0  0  0  0
    1.0886   -0.8556   -0.3219 C   0  0  0  0  0  0  0  0  0  0  0  0
    1.0735    1.3313   -0.9172 C   0  0  0  0  0  0  0  0  0  0  0  0
    0.3751    2.4792   -1.5630 C   0  0  0  0  0  0  0  0  0  0  0  0
   -0.7099    3.1004   -0.7060 C   0  0  0  0  0  0  0  0  0  0  0  0
   -0.9286   -2.4652   -0.2627 C   0  0  0  0  0  0  0  0  0  0  0  0
   -1.8520   -1.6289    0.3647 C   0  0  0  0  0  0  0  0  0  0  0  0
   -1.3538   -3.6555   -0.8528 C   0  0  0  0  0  0  0  0  0  0  0  0
   -1.9586    2.4866   -0.6080 C   0  0  0  0  0  0  0  0  0  0  0  0
   -0.4595    4.2861   -0.0154 C   0  0  0  0  0  0  0  0  0  0  0  0
   -3.2006   -1.9829    0.4019 C   0  0  0  0  0  0  0  0  0  0  0  0
   -2.7024   -4.0094   -0.8154 C   0  0  0  0  0  0  0  0  0  0  0  0
   -2.9571    3.0585    0.1806 C   0  0  0  0  0  0  0  0  0  0  0  0
   -1.4577    4.8580    0.7732 C   0  0  0  0  0  0  0  0  0  0  0  0
   -3.6259   -3.1730   -0.1880 C   0  0  0  0  0  0  0  0  0  0  0  0
   -2.7066    4.2443    0.8711 C   0  0  0  0  0  0  0  0  0  0  0  0
   -5.4644   -1.5905    1.0160 C   0  0  0  0  0  0  0  0  0  0  0  0
    3.1464   -1.6926    1.9645 H   0  0  0  0  0  0  0  0  0  0  0  0
    2.4169   -2.8158    0.8707 H   0  0  0  0  0  0  0  0  0  0  0  0
    4.5050    1.8744    0.6164 H   0  0  0  0  0  0  0  0  0  0  0  0
    4.2246    0.6851    1.8702 H   0  0  0  0  0  0  0  0  0  0  0  0
    4.6486   -3.2652    0.5773 H   0  0  0  0  0  0  0  0  0  0  0  0
    4.3180   -2.2752   -0.8309 H   0  0  0  0  0  0  0  0  0  0  0  0
    5.3266   -0.0389   -0.9300 H   0  0  0  0  0  0  0  0  0  0  0  0
    6.3437    0.4664    0.4065 H   0  0  0  0  0  0  0  0  0  0  0  0
    5.4916   -1.3431    1.7227 H   0  0  0  0  0  0  0  0  0  0  0  0
   -0.0686    2.1466   -2.5108 H   0  0  0  0  0  0  0  0  0  0  0  0
    1.1068    3.2475   -1.8456 H   0  0  0  0  0  0  0  0  0  0  0  0
    1.0329   -2.8727   -0.5921 H   0  0  0  0  0  0  0  0  0  0  0  0
   -1.5379   -0.7040    0.8421 H   0  0  0  0  0  0  0  0  0  0  0  0
   -0.6452   -4.3162   -1.3458 H   0  0  0  0  0  0  0  0  0  0  0  0
   -2.1687    1.5645   -1.1433 H   0  0  0  0  0  0  0  0  0  0  0  0
    0.5096    4.7733   -0.0813 H   0  0  0  0  0  0  0  0  0  0  0  0
   -3.0327   -4.9364   -1.2754 H   0  0  0  0  0  0  0  0  0  0  0  0
   -3.9293    2.5803    0.2567 H   0  0  0  0  0  0  0  0  0  0  0  0
   -1.2627    5.7809    1.3114 H   0  0  0  0  0  0  0  0  0  0  0  0
   -4.6572   -3.5088   -0.1958 H   0  0  0  0  0  0  0  0  0  0  0  0
   -3.4838    4.6895    1.4853 H   0  0  0  0  0  0  0  0  0  0  0  0
   -6.0402   -0.8235    1.5443 H   0  0  0  0  0  0  0  0  0  0  0  0
   -5.5945   -2.5263    1.5700 H   0  0  0  0  0  0  0  0  0  0  0  0
   -5.8683   -1.6498   -0.0004 H   0  0  0  0  0  0  0  0  0  0  0  0
  1 21  1  0  0  0  0
  1 27  1  0  0  0  0
  2 10  1  0  0  0  0
  2 11  1  0  0  0  0
  2 36  1  0  0  0  0
  3  9  1  0  0  0  0
  3 13  2  0  0  0  0
  4 12  2  0  0  0  0
  4 13  1  0  0  0  0
  5 12  1  0  0  0  0
  5 16  1  0  0  0  0
  5 39  1  0  0  0  0
  6  7  1  0  0  0  0
  6  9  2  0  0  0  0
  6 12  1  0  0  0  0
  7 10  1  0  0  0  0
  7 28  1  0  0  0  0
  7 29  1  0  0  0  0
  8  9  1  0  0  0  0
  8 11  1  0  0  0  0
  8 30  1  0  0  0  0
  8 31  1  0  0  0  0
 10 32  1  0  0  0  0
 10 33  1  0  0  0  0
 11 34  1  0  0  0  0
 11 35  1  0  0  0  0
 13 14  1  0  0  0  0
 14 15  1  0  0  0  0
 14 37  1  0  0  0  0
 14 38  1  0  0  0  0
 15 19  2  0  0  0  0
 15 20  1  0  0  0  0
 16 17  2  0  0  0  0
 16 18  1  0  0  0  0
 17 21  1  0  0  0  0
 17 40  1  0  0  0  0
 18 22  2  0  0  0  0
 18 41  1  0  0  0  0
 19 23  1  0  0  0  0
 19 42  1  0  0  0  0
 20 24  2  0  0  0  0
 20 43  1  0  0  0  0
 21 25  2  0  0  0  0
 22 25  1  0  0  0  0
 22 44  1  0  0  0  0
 23 26  2  0  0  0  0
 23 45  1  0  0  0  0
 24 26  1  0  0  0  0
 24 46  1  0  0  0  0
 25 47  1  0  0  0  0
 26 48  1  0  0  0  0
 27 49  1  0  0  0  0
 27 50  1  0  0  0  0
 27 51  1  0  0  0  0
M  END
> <PUBCHEM_COMPOUND_CID>
72197668

> <PUBCHEM_CONFORMER_RMSD>
0.8

> <PUBCHEM_CONFORMER_DIVERSEORDER>
2
110
61
72
250
48
246
256
69
259
166
70
212
252
38
234
217
53
191
163
236
160
167
23
227
104
230
177
9
260
73
92
209
203
144
175
109
146
152
143
273
225
189
62
119
253
32
270
235
150
56
185
245
43
161
231
233
112
89
132
95
47
16
66
136
210
222
192
215
207
271
255
170
229
55
254
83
201
25
154
75
4
142
178
179
131
264
241
105
39
224
220
266
124
65
120
188
244
268
169
125
190
103
98
85
99
218
44
238
30
11
91
202
71
181
145
147
267
249
107
239
176
197
90
262
261
164
162
204
31
148
172
126
193
159
274
117
243
96
113
182
102
242
183
153
247
46
186
168
214
84
74
205
130
13
223
6
79
258
141
155
219
63
149
263
129
200
240
60
237
76
199
40
140
18
14
221
194
27
101
265
208
51
28
171
257
173
156
50
248
116
80
49
20
10
226
123
269
54
213
57
272
165
94
216
184
115
82
35
180
111
211
137
232
100
68
158
41
198
67
151
86
12
121
88
26
196
42
33
128
195
3
1
206
21
108
58
135
64
114
37
97
34
59
139
52
45
138
106
19
174
87
118
22
78
127
134
7
93
77
5
228
187
251
29
157
122
36
24
133
81
17
8
15

> <PUBCHEM_MMFF94_PARTIAL_CHARGES>
38
1 -0.36
10 0.27
11 0.27
12 0.41
13 0.48
14 0.29
15 -0.14
16 0.1
17 -0.15
18 -0.15
19 -0.15
2 -0.9
20 -0.15
21 0.08
22 -0.15
23 -0.15
24 -0.15
25 -0.15
26 -0.15
27 0.28
3 -0.62
36 0.36
39 0.4
4 -0.62
40 0.15
41 0.15
42 0.15
43 0.15
44 0.15
45 0.15
46 0.15
47 0.15
48 0.15
5 -0.6
6 -0.14
7 0.14
8 0.14
9 0.17

> <PUBCHEM_EFFECTIVE_ROTOR_COUNT>
6

> <PUBCHEM_PHARMACOPHORE_FEATURES>
10
1 1 acceptor
1 2 cation
1 2 donor
1 5 donor
3 3 4 13 cation
3 4 5 12 cation
6 15 19 20 23 24 26 rings
6 16 17 18 21 22 25 rings
6 3 4 6 9 12 13 rings
7 2 6 7 8 9 10 11 rings

> <PUBCHEM_HEAVY_ATOM_COUNT>
27

> <PUBCHEM_ATOM_DEF_STEREO_COUNT>
0

> <PUBCHEM_ATOM_UDEF_STEREO_COUNT>
0

> <PUBCHEM_BOND_DEF_STEREO_COUNT>
0

> <PUBCHEM_BOND_UDEF_STEREO_COUNT>
0

> <PUBCHEM_ISOTOPIC_ATOM_COUNT>
0

> <PUBCHEM_COMPONENT_COUNT>
1

> <PUBCHEM_CACTVS_TAUTO_COUNT>
3

> <PUBCHEM_CONFORMER_ID>
044DA62400000002

> <PUBCHEM_MMFF94_ENERGY>
92.9908

> <PUBCHEM_FEATURE_SELFOVERLAP>
50.898

> <PUBCHEM_SHAPE_FINGERPRINT>
10006869 2 18341331201089871612
10050765 1 18411133594997468370
10064457 181 18123186797549528504
1100329 8 18122631819091792657
11513181 2 17985257474507664767
11552529 35 18410004408443605744
11578080 2 17987212527004540866
12166972 35 18055628675775899211
12422481 6 18193301623407872849
12788726 201 18263945361171916460
13004483 165 18409161138506008371
13140716 1 18264489477319035709
13692114 37 18051673470209331425
138480 1 16105855415629682685
13965767 371 18055385502926690347
14117953 113 18341058462914936991
14466204 15 17546157966537496369
14790565 3 17906734705407336060
14866123 147 18121207680803950202
14955137 171 18191598646868038867
15230672 131 17833275221450047974
17818456 19 18410012126135631806
17980427 23 17843686809978630535
18681886 176 17837768199037290858
19591789 44 17689147912321412934
1979834 28 17690883015054260121
20028762 73 17982436119333369229
20775438 99 16900690748601169391
21133410 38 17698165046600842585
21344244 78 18194108844788402891
21796203 349 17757877572356566961
22113638 7 18340493386878681813
23559900 14 17690266532011418395
23845131 108 17905600004326767049
244849 19 17488191383498955454
345986 75 18042382747025357210
4409770 3 18335688421880269573
469060 322 16515685498555461430
5104073 3 18264187151447326258
563151 40 18044955476229651154
56638632 10 17191207043037730209
59444896 2 17607848051168379812
6004065 56 17617923078156469178
6442390 28 17907579130020684108
653340 110 18340485560688827976
7097593 13 18049160265516630647
79837 15 18122904226923374720
84936 182 17114668969338823133
86090 222 16241578122368517849
9777508 108 18268138765376261424

> <PUBCHEM_SHAPE_MULTIPOLES>
529.85
9.16
7.06
1.07
6.43
5.55
-0.1
-6.27
3.62
-8.41
-0.14
-0.25
0.22
-0.91

> <PUBCHEM_SHAPE_SELFOVERLAP>
1145.214

> <PUBCHEM_SHAPE_VOLUME>
288.4

> <PUBCHEM_COORDINATE_TYPE>
2
5
10

$$$$
